%chk=cyclopentadiene-ethene-(-10).chk
# hf/3-21g geom=connectivity

Title Card Required

0 1
 C                 -0.87012800   -1.20449600    0.47179900
 C                 -1.17808400   -0.77317100   -0.71334400
 H                 -1.47551000   -1.37047200   -1.57383700
 C                 -1.17800900    0.77349400   -0.71314000
 H                 -1.47542800    1.37109400   -1.57341300
 C                 -0.87001500    1.20438000    0.47210600
 C                  2.04338000   -0.59136700   -0.46471200
 H                  1.52409500   -1.25153200   -1.29636100
 C                  2.04340900    0.59142500   -0.46451100
 H                  1.93108300    1.28907700    0.54567700
 H                  1.93102900   -1.28927200    0.54533200
 H                  1.52408700    1.25185700   -1.29600300
 H                 -0.50246500   -2.23312900    0.69930600
 H                 -0.50243300    2.23292000    0.69996400
 C                 -0.38811600   -0.00024000    1.30470600
 H                  0.58458800   -0.00038700    1.82293700
 H                 -1.16367800   -0.00031100    2.13897400

 1 2 1.5 13 1.0 15 1.0
 2 3 1.0 4 1.5
 3
 4 5 1.0 6 1.5
 5
 6 14 1.0 15 1.0
 7 8 1.0 9 2.0 11 1.0
 8
 9 10 1.0 12 1.0
 10
 11
 12
 13
 14
 15 16 1.0 17 1.0
 16
 17

