%chk=cyclopentadiene-ethene-(-05).chk
# hf/3-21g geom=connectivity

Title Card Required

0 1
 C                 -0.66512800   -1.17949600    0.41679900
 C                 -1.17808400   -0.73817100   -0.72834400
 H                 -1.51551000   -1.35047200   -1.55883700
 C                 -1.17800900    0.73849400   -0.72814000
 H                 -1.51542800    1.35109400   -1.55841300
 C                 -0.66501500    1.17938000    0.41710600
 C                  1.82838000   -0.64136700   -0.39971200
 H                  1.53409500   -1.24653200   -1.28136100
 C                  1.82840900    0.64142500   -0.39951100
 H                  1.99108300    1.26407700    0.52067700
 H                  1.99102900   -1.26427200    0.52033200
 H                  1.53408700    1.24685700   -1.28100300
 H                 -0.44746500   -2.21312900    0.68430600
 H                 -0.44743300    2.21292000    0.68496400
 C                 -0.37811600   -0.00024000    1.31470600
 H                  0.53958800   -0.00038700    1.90793700
 H                 -1.22367800   -0.00031100    2.03897400

 1 2 1.5 13 1.0 15 1.0
 2 3 1.0 4 1.5
 3
 4 5 1.0 6 1.5
 5
 6 14 1.0 15 1.0
 7 8 1.0 9 2.0 11 1.0
 8
 9 10 1.0 12 1.0
 10
 11
 12
 13
 14
 15 16 1.0 17 1.0
 16
 17

