%chk=Ice.chk
# hf/3-21g geom=connectivity

****

0 1
 O                  4.04700000    3.81800000    8.26000000
 H                  4.04300000    3.84000000    9.26000000
 H                  3.57500000    2.99500000    7.94500000
 O                  2.75100000    6.05900000    7.28200000
 H                  3.21900000    5.24900000    7.63600000
 H                  1.80600000    6.06700000    7.61200000
 O                  4.06800000    3.71500000    3.64800000
 H                  5.00900000    3.72100000    3.98700000
 H                  3.59600000    4.54000000    3.96200000
 O                  2.76300000    5.99700000    4.51600000
 H                  2.75800000    6.01900000    5.51500000
 H                  3.23700000    6.80500000    4.16700000
 O                  0.13700000    6.08300000    8.19300000
 H                  0.13300000    6.10500000    9.19300000
 H                 -0.33400000    5.26100000    7.87600000
 O                 -1.16700000    3.80600000    7.31400000
 H                 -0.69900000    2.99500000    7.66800000
 H                 -2.11100000    3.81300000    7.64400000
 O                 -3.78000000    3.83000000    8.22500000
 H                 -3.78500000    3.85200000    9.22500000
 H                 -4.25200000    3.00600000    7.90800000
 O                  0.15800000    5.98000000    3.58100000
 H                  1.09800000    5.98700000    3.92000000
 H                 -0.31300000    6.80500000    3.89500000
 O                 -1.15500000    3.74400000    4.54700000
 H                 -1.15900000    3.76600000    5.54700000
 H                 -0.68100000    4.55200000    4.19900000
 O                 -3.75900000    3.72700000    3.61300000
 H                 -2.81700000    3.73300000    3.95200000
 H                 -4.23100000    4.55200000    3.92700000
 O                  4.03900000   -0.70000000    8.36100000
 H                  4.03500000   -0.67800000    9.36000000
 H                  3.56900000   -1.52300000    8.04300000
 O                  2.73600000   -2.97800000    7.48200000
 H                  3.20400000   -3.78800000    7.83600000
 H                  1.79100000   -2.97000000    7.81100000
 O                  0.12300000   -2.95400000    8.39200000
 H                  0.11800000   -2.93200000    9.39200000
 H                 -0.34900000   -3.77700000    8.07500000
 O                 -1.17400000   -0.71300000    7.41400000
 H                 -0.70600000   -1.52200000    7.76800000
 H                 -2.11900000   -0.70400000    7.74300000
 O                  0.12900000    1.56500000    8.29200000
 H                  0.12500000    1.58700000    9.29200000
 H                 -0.34100000    0.74100000    7.97600000
 O                  2.74300000    1.54100000    7.38200000
 H                  3.21100000    0.73000000    7.73600000
 H                  1.79900000    1.54900000    7.71100000
 O                  4.06100000   -0.80300000    3.74900000
 H                  5.00200000   -0.79700000    4.08700000
 H                  3.58900000    0.02200000    4.06300000
 O                  2.74900000   -3.03900000    4.71600000
 H                  2.74400000   -3.01700000    5.71600000
 H                  3.22200000   -2.23100000    4.36800000
 O                  0.14300000   -3.05500000    3.78100000
 H                  1.08400000   -3.05000000    4.11900000
 H                 -0.32800000   -2.23100000    4.09500000
 O                 -1.16200000   -0.77300000    4.64800000
 H                 -1.16600000   -0.75100000    5.64800000
 H                 -0.68800000    0.03500000    4.29900000
 O                  0.15100000    1.46300000    3.68100000
 H                  1.09200000    1.46900000    4.01900000
 H                 -0.32100000    2.28700000    3.99400000
 O                  2.75600000    1.48000000    4.61600000
 H                  2.75100000    1.50200000    5.61600000
 H                  3.22900000    2.28700000    4.26700000
 O                 -3.78700000   -0.68900000    8.32400000
 H                 -3.79200000   -0.66600000    9.32400000
 H                 -4.26000000   -1.51100000    8.00800000
 O                 -5.09200000   -2.96600000    7.44600000
 H                 -4.62300000   -3.77500000    7.80000000
 H                 -6.03700000   -2.95700000    7.77500000
 O                 -5.08500000    1.55300000    7.34500000
 H                 -4.61500000    0.74200000    7.69900000
 H                 -6.03000000    1.56100000    7.67500000
 O                 -3.76700000   -0.79000000    3.71300000
 H                 -2.82500000   -0.78500000    4.05200000
 H                 -4.23800000    0.03400000    4.02700000
 O                 -5.07900000   -3.02800000    4.68000000
 H                 -5.08400000   -3.00500000    5.68000000
 H                 -4.60400000   -2.21900000    4.33100000
 O                 -5.07200000    1.49200000    4.57900000
 H                 -5.07600000    1.51400000    5.57900000
 H                 -4.59700000    2.29900000    4.23100000

 1 2 1.0 3 1.0 5 0.5
 2
 3 46 0.5
 4 5 1.0 6 1.0 11 0.5
 5
 6 13 0.5
 7 8 1.0 9 1.0 66 0.5
 8
 9 10 0.5
 10 11 1.0 12 1.0 23 0.5
 11
 12
 13 14 1.0 15 1.0
 14
 15 16 0.5
 16 17 1.0 18 1.0 26 0.5
 17 43 0.5
 18 19 0.5
 19 20 1.0 21 1.0
 20
 21 73 0.5
 22 23 1.0 24 1.0 27 0.5
 23
 24
 25 26 1.0 27 1.0 29 0.5 63 0.5
 26
 27
 28 29 1.0 30 1.0 84 0.5
 29
 30
 31 32 1.0 33 1.0 47 0.5
 32
 33 34 0.5
 34 35 1.0 36 1.0 53 0.5
 35
 36 37 0.5
 37 38 1.0 39 1.0 41 0.5
 38
 39
 40 41 1.0 42 1.0 59 0.5 45 0.5
 41
 42 67 0.5
 43 44 1.0 45 1.0 48 0.5
 44
 45
 46 47 1.0 48 1.0 65 0.5
 47
 48
 49 50 1.0 51 1.0 54 0.5
 50
 51 64 0.5
 52 53 1.0 54 1.0 56 0.5
 53
 54
 55 56 1.0 57 1.0
 56
 57 58 0.5
 58 59 1.0 60 1.0 77 0.5
 59
 60 61 0.5
 61 62 1.0 63 1.0
 62 64 0.5
 63
 64 65 1.0 66 1.0
 65
 66
 67 68 1.0 69 1.0 74 0.5
 68
 69 70 0.5
 70 71 1.0 72 1.0 80 0.5
 71
 72
 73 74 1.0 75 1.0 83 0.5
 74
 75
 76 77 1.0 78 1.0 81 0.5
 77
 78 82 0.5
 79 80 1.0 81 1.0
 80
 81
 82 83 1.0 84 1.0
 83
 84

