%chk=Samarium_lexidronam.chk
# hf/3-21g geom=connectivity

*****

0 1
 C                 -0.53710000   -1.29890000   -0.47620000
 C                 -1.64730000   -0.88720000   -1.49960000
 N                 -1.10210000   -0.33820000   -2.74930000
 C                 -2.00380000    0.60280000   -3.39210000
 P                 -1.00520000    1.63990000   -4.61050000
 O                 -0.73720000    0.78850000   -5.88000000
 O                  0.60020000    2.08540000   -4.06660000
 C                 -0.73730000   -1.39480000   -3.68790000
 P                  1.01460000   -1.93990000   -3.40580000
 O                  1.14130000   -2.93300000   -2.22120000
 O                  2.06270000   -0.63790000   -2.96770000
 N                  0.37020000   -0.19400000   -0.13060000
 C                  1.70040000   -0.66200000    0.22540000
 P                  2.90640000    0.78140000    0.09230000
 O                  2.83750000    1.63540000    1.38650000
 O                  2.53270000    1.92570000   -1.18540000
 C                 -0.17270000    0.65290000    0.92990000
 P                 -1.28980000    1.95770000    0.21340000
 O                 -2.69460000    1.40940000   -0.15110000
 O                 -0.69160000    2.58310000   -1.28070000
 Sm                 0.69760000    0.97260000   -2.10270000
 O                 -1.81610000    3.04840000   -5.22000000
 Na                -2.38610000    4.08100000   -3.56070000
 O                  1.75160000   -2.76030000   -4.74510000
 Na                 1.02900000   -4.65750000   -4.62970000
 O                  4.58160000    0.33820000   -0.04490000
 Na                 5.12720000   -0.43500000    1.76670000
 O                 -1.60480000    3.32940000    1.22800000
 Na                -3.01700000    2.69030000    2.54090000
 H                 -1.04960638   -1.55304563    0.42803847
 H                  0.06530035   -2.03021288   -0.97338737
 H                 -2.19175731   -0.08927495   -1.03940238
 H                 -2.15031219   -1.79222340   -1.76943585
 H                 -2.35792984    1.26704405   -2.63165809
 H                 -2.69960929    0.02773318   -3.96659769
 H                 -1.35874315   -2.23488713   -3.45776521
 H                 -0.76734039   -0.95870151   -4.66453487
 H                  1.66557812   -0.94492275    1.25673028
 H                  1.98783519   -1.37767194   -0.51628368
 H                 -0.78909962    0.02362524    1.53732472
 H                  0.65840388    1.16798378    1.36447456

 1 2 1.0 12 1.0 30 1.0 31 1.0
 2 3 1.0 32 1.0 33 1.0
 3 4 1.0 8 1.0 21 1.0
 4 5 1.0 34 1.0 35 1.0
 5 22 1.0 6 2.0 7 1.0
 6
 7 21 1.0
 8 9 1.0 36 1.0 37 1.0
 9 24 1.0 10 2.0 11 1.0
 10
 11 21 1.0
 12 13 1.0 17 1.0 21 1.0
 13 14 1.0 38 1.0 39 1.0
 14 26 1.0 15 2.0 16 1.0
 15
 16 21 1.0
 17 18 1.0 40 1.0 41 1.0
 18 28 1.0 19 2.0 20 1.0
 19
 20 21 1.0
 21
 22 23 1.0
 23
 24 25 1.0
 25
 26 27 1.0
 27
 28 29 1.0
 29
 30
 31
 32
 33
 34
 35
 36
 37
 38
 39
 40
 41

