%chk=sodium-chloride.chk
# hf/3-21g geom=connectivity

Title Card Required

0 2
 Cl                -1.18947370    0.64210525    0.00000000
 Na                -1.18947370    3.03210525    0.00000000
 Na                -1.18947370    0.64210525    2.39000000
 Na                 1.20052630    0.64210525    0.00000000
 Na                -1.18947370    0.64210525   -2.39000000
 Na                -3.57947370    0.64210525    0.00000000
 Na                -1.18947370   -1.74789475    0.00000000
 Cl                 1.20052630    0.64210525    2.39000000
 Cl                 1.20052630    3.03210525   -0.00000000
 Cl                 1.20052630    0.64210525   -2.39000000
 Cl                 1.20052630   -1.74789475    0.00000000
 Cl                -3.57947370    0.64210525    2.39000000
 Cl                -3.57947370   -1.74789475    0.00000000
 Cl                -3.57947370    0.64210525   -2.39000000
 Cl                -3.57947370    3.03210525    0.00000000
 Na                 1.20052630    3.03210525    2.39000000
 Na                 1.20052630   -1.74789475    2.39000000
 Cl                -1.18947370    3.03210525    2.39000000
 Cl                -1.18947370   -1.74789475    2.39000000
 Na                -3.57947370    3.03210525    2.39000000
 Na                -3.57947370   -1.74789475    2.39000000
 Na                -3.57947370   -1.74789475   -2.39000000
 Cl                -1.18947370   -1.74789475   -2.39000000
 Na                 1.20052630   -1.74789475   -2.39000000
 Na                 1.20052630    3.03210525   -2.39000000
 Cl                -1.18947370    3.03210525   -2.39000000
 Na                -3.57947370    3.03210525   -2.39000000

 1 2 1.0 3 1.0 4 1.0 5 1.0 6 1.0 7 1.0
 2 15 1.0 9 1.0 18 1.0 26 1.0
 3 12 1.0 8 1.0 18 1.0 19 1.0
 4 8 1.0 9 1.0 10 1.0 11 1.0
 5 14 1.0 10 1.0 23 1.0 26 1.0
 6 12 1.0 13 1.0 14 1.0 15 1.0
 7 13 1.0 11 1.0 19 1.0 23 1.0
 8 16 1.0 17 1.0
 9 16 1.0 25 1.0
 10 24 1.0 25 1.0
 11 17 1.0 24 1.0
 12 20 1.0 21 1.0
 13 21 1.0 22 1.0
 14 22 1.0 27 1.0
 15 20 1.0 27 1.0
 16 18 1.0
 17 19 1.0
 18 20 1.0
 19 21 1.0
 20
 21
 22 23 1.0
 23 24 1.0
 24
 25 26 1.0
 26 27 1.0
 27

