%chk=cyclopentadiene-ethene-(05).chk
# hf/3-21g geom=connectivity

Title Card Required

0 1
 C                 -0.25512800   -1.12949600    0.30679900
 C                 -1.17808400   -0.66817100   -0.75834400
 H                 -1.59551000   -1.31047200   -1.52883700
 C                 -1.17800900    0.66849400   -0.75814000
 H                 -1.59542800    1.31109400   -1.52841300
 C                 -0.25501500    1.12938000    0.30710600
 C                  1.39838000   -0.74136700   -0.26971200
 H                  1.55409500   -1.23653200   -1.25136100
 C                  1.39840900    0.74142500   -0.26951100
 H                  2.11108300    1.21407700    0.47067700
 H                  2.11102900   -1.21427200    0.47033200
 H                  1.55408700    1.23685700   -1.25100300
 H                 -0.33746500   -2.17312900    0.65430600
 H                 -0.33743300    2.17292000    0.65496400
 C                 -0.35811600   -0.00024000    1.33470600
 H                  0.44958800   -0.00038700    2.07793700
 H                 -1.34367800   -0.00031100    1.83897400

 1 2 1.5 13 1.0 15 1.0
 2 3 1.0 4 1.5
 3
 4 5 1.0 6 1.5
 5
 6 14 1.0 15 1.0
 7 8 1.0 9 2.0 11 1.0
 8
 9 10 1.0 12 1.0
 10
 11
 12
 13
 14
 15 16 1.0 17 1.0
 16
 17

