%rwf=dimethyl_dithionate.rwf
%nosave
%mem=64GB
%nprocshared=20
%chk=dimethyl_dithionate.chk
# opt 6-31+g(d) geom=connectivity m062x

Title Card Required

0 1
 S                  0.93002535    0.54904722    0.00005713
 S                 -1.10442483   -0.17663348    0.00001921
 O                  1.79156435   -0.79649278    0.00029913
 O                 -1.96596383    1.16890652   -0.00020037
 C                  3.22858835   -0.62289478   -0.00025287
 H                  3.62572535   -1.63572078    0.00012013
 H                  3.53433035   -0.08990478   -0.90289387
 H                  3.53491935   -0.08902678    0.90166913
 C                 -3.40298783    0.99530852   -0.00036314
 H                 -3.70913407    0.46194247    0.90191948
 H                 -3.80012483    2.00813452   -0.00048195
 H                 -3.70891459    0.46181557   -0.90264452
 O                  1.07450335    1.23847122    1.25990413
 O                  1.07468935    1.23809722   -1.25997487
 O                 -1.37708415   -0.82583210    1.26001513
 O                 -1.37691320   -0.82612946   -1.25986387

 1 3 1.0 13 2.0 14 2.0 2 1.0
 2 4 1.0 15 2.0 16 2.0
 3 5 1.0
 4 9 1.0
 5 6 1.0 7 1.0 8 1.0
 6
 7
 8
 9 10 1.0 11 1.0 12 1.0
 10
 11
 12
 13
 14
 15
 16

