%chk=R-2-cyano-1-oxopropan-2-yl-lithium.chk
# hf/3-21g geom=connectivity

Title Card Required

0 1
 C                 -2.46387286    0.62138727    0.00000000
 H                 -2.10721843   -0.38742273    0.00000000
 H                 -2.10720002    1.12578546    0.87365150
 H                 -3.53387286    0.62140046    0.00000000
 C                 -1.95053064    1.34734355   -1.25740497
 C                 -2.46407601    2.79919448   -1.25754562
 O                 -2.19280825    3.58925480   -2.15672609
 H                 -3.09617091    3.08371583   -0.39000933
 C                 -0.41053066    1.34756853   -1.25726454
 N                  0.74946934    1.34749988   -1.25723035
 Li                -2.61691057    0.40433062   -2.89039744

 1 2 1.0 3 1.0 4 1.0 5 1.0
 2
 3
 4
 5 6 1.0 9 1.0 11 1.0
 6 7 2.0 8 1.0
 7
 8
 9 10 3.0
 10
 11

