%chk=Nanotube(3-3).chk
# hf/3-21g geom=connectivity

****

0 1
 C                  2.10290000    0.05260000  -11.68690000
 C                  1.64410000    1.32100000  -11.68550000
 C                  1.05860000    1.84330000  -10.45590000
 C                 -0.37100000    2.08790000  -10.45660000
 C                 -1.09700000    1.79480000  -11.68690000
 C                 -1.96610000    0.76340000  -11.68550000
 C                 -2.12570000   -0.00490000  -10.45590000
 C                 -1.62270000   -1.36520000  -10.45660000
 C                 -1.00590000   -1.84740000  -11.68690000
 C                  0.32200000   -2.08440000  -11.68550000
 C                  1.06710000   -1.83840000  -10.45590000
 C                  1.99360000   -0.72270000  -10.45660000
 C                  2.08610000   -0.00640000   -9.25680000
 C                  1.58890000    1.35320000   -9.25620000
 C                  1.02430000    1.80160000   -8.00150000
 C                 -0.35560000    2.04170000   -8.00180000
 C                 -1.03750000    1.80980000   -9.25680000
 C                 -1.96640000    0.69950000   -9.25610000
 C                 -2.07230000   -0.01370000   -8.00150000
 C                 -1.59040000   -1.32890000   -8.00180000
 C                 -1.04860000   -1.80340000   -9.25680000
 C                  0.37740000   -2.05260000   -9.25610000
 C                  1.04810000   -1.78780000   -8.00160000
 C                  1.94600000   -0.71290000   -8.00180000
 C                  2.11260000   -0.00350000   -6.77210000
 C                  1.60990000    1.36790000   -6.77200000
 C                  1.03800000    1.80660000   -5.55860000
 C                 -0.36680000    2.05110000   -5.55870000
 C                 -1.05330000    1.83130000   -6.77210000
 C                 -1.98960000    0.71030000   -6.77200000
 C                 -2.08360000   -0.00430000   -5.55860000
 C                 -1.59290000   -1.34320000   -5.55870000
 C                 -1.05930000   -1.82790000   -6.77210000
 C                  0.37960000   -2.07820000   -6.77190000
 C                  1.04550000   -1.80230000   -5.55860000
 C                  1.95970000   -0.70790000   -5.55870000
 C                  2.08640000    0.00690000   -4.29950000
 C                  1.59670000    1.34300000   -4.29950000
 C                  1.05860000    1.82670000   -3.08650000
 C                 -0.37940000    2.07690000   -3.08640000
 C                 -1.04920000    1.80340000   -4.29950000
 C                 -1.96140000    0.71130000   -4.29940000
 C                 -2.11120000    0.00350000   -3.08640000
 C                 -1.60890000   -1.36700000   -3.08640000
 C                 -1.03720000   -1.81030000   -4.29950000
 C                  0.36470000   -2.05430000   -4.29940000
 C                  1.05260000   -1.83020000   -3.08640000
 C                  1.98840000   -0.70990000   -3.08640000
 C                  2.07150000    0.01090000   -1.85410000
 C                  1.58790000    1.33030000   -1.85420000
 C                  1.04920000    1.82000000   -0.60200000
 C                 -0.37290000    2.06740000   -0.60200000
 C                 -1.04520000    1.78860000   -1.85410000
 C                 -1.94610000    0.70990000   -1.85410000
 C                 -2.10070000   -0.00130000   -0.60200000
 C                 -1.60400000   -1.35650000   -0.60200000
 C                 -1.02630000   -1.79940000   -1.85410000
 C                  0.35820000   -2.04030000   -1.85410000
 C                  1.05140000   -1.81870000   -0.60190000
 C                  1.97680000   -0.71070000   -0.60200000
 C                  2.10190000   -0.00100000    0.60270000
 C                  1.60340000    1.35910000    0.60310000
 C                  1.02500000    1.79940000    1.85290000
 C                 -0.35680000    2.03990000    1.85260000
 C                 -1.05010000    1.82080000    0.60310000
 C                 -1.97870000    0.70900000    0.60310000
 C                 -2.07070000   -0.01220000    1.85260000
 C                 -1.58800000   -1.32910000    1.85310000
 C                 -1.05190000   -1.81970000    0.60320000
 C                  0.37530000   -2.06810000    0.60290000
 C                  1.04580000   -1.78740000    1.85280000
 C                  1.94500000   -0.71090000    1.85290000
 C                  2.11080000   -0.00320000    3.08860000
 C                  1.60850000    1.36670000    3.08880000
 C                  1.04060000    1.80970000    4.30060000
 C                 -0.36740000    2.05500000    4.29920000
 C                 -1.05290000    1.82920000    3.08830000
 C                 -1.98740000    0.71040000    3.08810000
 C                 -2.08760000   -0.00430000    4.29920000
 C                 -1.59590000   -1.34600000    4.29920000
 C                 -1.05840000   -1.82600000    3.08850000
 C                  0.37870000   -2.07640000    3.08680000
 C                  1.04890000   -1.80480000    4.29530000
 C                  1.96370000   -0.70830000    4.30190000
 C                  2.08410000    0.00600000    5.56480000
 C                  1.59110000    1.34410000    5.56650000
 C                  1.06490000    1.82230000    6.78380000
 C                 -0.37940000    2.07700000    6.77690000
 C                 -1.04570000    1.80030000    5.56020000
 C                 -1.95730000    0.70970000    5.55900000
 C                 -2.11360000    0.00820000    6.77390000
 C                 -1.61620000   -1.36720000    6.76670000
 C                 -1.04080000   -1.80480000    5.55990000
 C                  0.36650000   -2.04860000    5.55270000
 C                  1.05630000   -1.82630000    6.75940000
 C                  1.99480000   -0.70340000    6.77670000
 C                  2.07240000    0.01030000    8.01960000
 C                  1.59550000    1.31480000    8.01390000
 C                  1.05610000    1.77950000    9.28000000
 C                 -0.36350000    2.03800000    9.26130000
 C                 -1.03890000    1.78640000    8.00870000
 C                 -1.94340000    0.71500000    8.00380000
 C                 -2.08780000    0.00230000    9.25880000
 C                 -1.56680000   -1.34750000    9.26700000
 C                 -1.02780000   -1.80380000    8.00100000
 C                  0.34140000   -2.03980000    7.97810000
 C                  1.05150000   -1.85850000    9.19910000
 C                  1.94110000   -0.74290000    9.25040000
 C                  1.95550000   -0.07070000   10.48860000
 C                  1.62600000    1.32170000   10.48000000
 C                  1.00430000    1.84090000   11.70700000
 C                 -0.32630000    2.07520000   11.68900000
 C                 -1.06360000    1.82970000   10.45740000
 C                 -1.99780000    0.72450000   10.45810000
 C                 -2.09870000   -0.06250000   11.68700000
 C                 -1.59640000   -1.32140000   11.68930000
 C                 -0.99250000   -1.80580000   10.45110000
 C                  0.36240000   -2.25970000   10.36530000
 C                  1.24120000   -2.09390000   11.52830000
 H                 -1.57450000   -1.92220000   12.61310000
 C                  1.84790000   -0.88540000   11.69330000
 H                  1.22190000   -2.96780000   12.25440000
 H                 -2.48200000    0.42170000   12.60310000
 H                  1.61000000    1.93710000   12.60930000
 H                  2.27370000   -0.54660000   12.63310000
 H                 -0.86060000    2.35340000   12.60540000
 H                 -1.60730000   -1.92160000  -12.60980000
 H                  0.86210000   -2.36450000  -12.60670000
 H                 -2.47870000    0.43570000  -12.60670000
 H                 -0.86050000    2.35270000  -12.60980000
 H                  1.61670000    1.92880000  -12.60670000
 H                  2.46780000   -0.43110000  -12.60980000

 1 2 2.0 12 1.0 132 1.0
 2 3 1.0 131 1.0
 3 4 2.0 14 1.0
 4 5 1.0 17 1.0
 5 6 2.0 130 1.0
 6 7 1.0 129 1.0
 7 8 2.0 18 1.0
 8 9 1.0 21 1.0
 9 10 2.0 127 1.0
 10 11 1.0 128 1.0
 11 12 2.0 22 1.0
 12 13 1.0
 13 14 2.0 24 1.0
 14 15 1.0
 15 16 2.0 26 1.0
 16 17 1.0 29 1.0
 17 18 2.0
 18 19 1.0
 19 20 2.0 30 1.0
 20 21 1.0 33 1.0
 21 22 2.0
 22 23 1.0
 23 24 2.0 34 1.0
 24 25 1.0
 25 26 2.0 36 1.0
 26 27 1.0
 27 28 2.0 38 1.0
 28 29 1.0 41 1.0
 29 30 2.0
 30 31 1.0
 31 32 2.0 42 1.0
 32 33 1.0 45 1.0
 33 34 2.0
 34 35 1.0
 35 36 2.0 46 1.0
 36 37 1.0
 37 38 2.0 48 1.0
 38 39 1.0
 39 40 2.0 50 1.0
 40 41 1.0 53 1.0
 41 42 2.0
 42 43 1.0
 43 44 2.0 54 1.0
 44 45 1.0 57 1.0
 45 46 2.0
 46 47 1.0
 47 48 2.0 58 1.0
 48 49 1.0
 49 50 2.0 60 1.0
 50 51 1.0
 51 52 2.0 62 1.0
 52 53 1.0 65 1.0
 53 54 2.0
 54 55 1.0
 55 56 2.0 66 1.0
 56 57 1.0 69 1.0
 57 58 2.0
 58 59 1.0
 59 60 2.0 70 1.0
 60 61 1.0
 61 62 2.0 72 1.0
 62 63 1.0
 63 64 2.0 74 1.0
 64 65 1.0 77 1.0
 65 66 2.0
 66 67 1.0
 67 68 2.0 78 1.0
 68 69 1.0 81 1.0
 69 70 2.0
 70 71 1.0
 71 72 2.0 82 1.0
 72 73 1.0
 73 74 2.0 84 1.0
 74 75 1.0
 75 76 2.0 86 1.0
 76 77 1.0 89 1.0
 77 78 2.0
 78 79 1.0
 79 80 2.0 90 1.0
 80 81 1.0 93 1.0
 81 82 2.0
 82 83 1.0
 83 84 2.0 94 1.0
 84 85 1.0
 85 86 2.0 96 1.0
 86 87 1.0
 87 88 2.0 98 1.0
 88 89 1.0 101 1.0
 89 90 2.0
 90 91 1.0
 91 92 2.0 102 1.0
 92 93 1.0 105 1.0
 93 94 2.0
 94 95 1.0
 95 96 2.0 106 1.0
 96 97 1.0
 97 98 2.0 108 1.0
 98 99 1.0
 99 100 2.0 110 1.0
 100 101 1.0 113 1.0
 101 102 2.0
 102 103 1.0
 103 104 2.0 114 1.0
 104 105 1.0 117 1.0
 105 106 2.0
 106 107 1.0
 107 108 2.0 118 1.0
 108 109 1.0
 109 110 2.0 121 1.0
 110 111 1.0
 111 112 2.0 124 1.0
 112 113 1.0 126 1.0
 113 114 2.0
 114 115 1.0
 115 116 2.0 123 1.0
 116 117 1.0 120 1.0
 117 118 2.0
 118 119 1.0
 119 121 2.0 122 1.0
 120
 121 125 1.0
 122
 123
 124
 125
 126
 127
 128
 129
 130
 131
 132

