%chk=halite.chk
# hf/3-21g geom=connectivity

global

1 0
 Na                 0.00000000    0.00000000    0.00000000
 Cl                 2.72660000    0.00000000    0.00000000
 Cl                 0.00000000    0.00000000    2.72660000
 Cl                 0.00000000    2.72660000    0.00000000
 Na                 0.00000000    0.00000000    5.45330000
 Cl                 2.72660000    0.00000000    5.45330000
 Cl                 0.00000000    2.72660000    5.45330000
 Na                 0.00000000    5.45330000    0.00000000
 Cl                 2.72660000    5.45330000    0.00000000
 Cl                 0.00000000    5.45330000    2.72660000
 Na                 0.00000000    5.45330000    5.45330000
 Cl                 2.72660000    5.45330000    5.45330000
 Na                 5.45330000    0.00000000    0.00000000
 Na                 2.72660000    0.00000000    2.72660000
 Na                 2.72660000    2.72660000    0.00000000
 Cl                 5.45330000    0.00000000    2.72660000
 Cl                 5.45330000    2.72660000    0.00000000
 Na                 5.45330000    0.00000000    5.45330000
 Na                 2.72660000    2.72660000    5.45330000
 Cl                 5.45330000    2.72660000    5.45330000
 Na                 5.45330000    5.45330000    0.00000000
 Na                 2.72660000    5.45330000    2.72660000
 Cl                 5.45330000    5.45330000    2.72660000
 Na                 5.45330000    5.45330000    5.45330000
 Na                 0.00000000    2.72660000    2.72660000
 Cl                 2.72660000    2.72660000    2.72660000
 Na                 5.45330000    2.72660000    2.72660000

 1 2 1.0 3 1.0 4 1.0
 2 13 1.0 14 1.0 15 1.0
 3 14 1.0 5 1.0 25 1.0
 4 15 1.0 25 1.0 8 1.0
 5 6 1.0 7 1.0
 6 18 1.0 14 1.0 19 1.0
 7 19 1.0 25 1.0 11 1.0
 8 10 1.0 9 1.0
 9 21 1.0 22 1.0 15 1.0
 10 11 1.0 22 1.0 25 1.0
 11 12 1.0
 12 24 1.0 22 1.0 19 1.0
 13 16 1.0 17 1.0
 14 16 1.0 26 1.0
 15 17 1.0 26 1.0
 16 18 1.0 27 1.0
 17 27 1.0 21 1.0
 18 20 1.0
 19 26 1.0 20 1.0
 20 24 1.0 27 1.0
 21 23 1.0
 22 23 1.0 26 1.0
 23 24 1.0 27 1.0
 24
 25 26 1.0
 26 27 1.0
 27

