%chk=E-2-chlorovinyloxytrimethylsilane.chk
# hf/3-21g geom=connectivity

Title Card Required

0 1
 C                 -0.81647400    0.28901734    0.00000000
 H                 -0.28331025   -0.63868758    0.00000000
 C                 -0.14119969    1.46399463    0.00000000
 H                 -0.67436344    2.39169955    0.00000000
 O                  1.28880031    1.46399463    0.00000000
 Si                 1.89966687    3.18902856   -0.00000301
 C                  1.25374845    4.10377239   -1.58418518
 H                  0.26029607    4.46085922   -1.40971064
 H                  1.89612097    4.93035481   -1.80558761
 H                  1.24857449    3.42462654   -2.41100689
 C                  1.25317056    4.10398353    1.58382145
 H                  1.31130022    3.44522055    2.42498272
 H                  1.85514673    4.96954260    1.76639251
 H                  0.23649214    4.40182735    1.43364141
 C                  3.83966659    3.18805351    0.00035157
 H                  4.19623967    2.68448735   -0.87382048
 H                  4.19683970    4.19667922    0.00158983
 H                  4.19591979    2.68245613    0.87348097
 Cl                -2.57647400    0.28901734    0.00000000

 1 2 1.0 3 2.0 19 1.0
 2
 3 4 1.0 5 1.0
 4
 5 6 1.0
 6 7 1.0 11 1.0 15 1.0
 7 8 1.0 9 1.0 10 1.0
 8
 9
 10
 11 12 1.0 13 1.0 14 1.0
 12
 13
 14
 15 16 1.0 17 1.0 18 1.0
 16
 17
 18
 19

