%chk=triphenylphosphine.chk
# hf/3-21g geom=connectivity

Title Card Required

0 1
 P                 -0.13728324   -0.27456647    0.00000000
 C                  0.46939393    0.58338185   -1.48602405
 C                 -0.43726516    1.11577691   -2.40308252
 C                  1.84071864    0.70876190   -1.70805223
 C                  0.02738383    1.77279712   -3.54222584
 H                 -1.51832924    1.01608991   -2.22814043
 C                  2.30567484    1.36681576   -2.84699505
 H                  2.55544713    0.28936651   -0.98527999
 C                  1.39929162    1.89869349   -3.76411694
 H                 -0.68719522    2.19191353   -4.26542341
 H                  3.38696076    1.46587995   -3.02158392
 H                  1.76541498    2.41682342   -4.66233261
 C                  0.47210908    0.58145868    1.48602219
 C                  1.61372987    0.11690814    2.13975471
 C                 -0.20206997    1.70197205    1.97128554
 C                  2.08060696    0.77238270    3.27887745
 H                  2.14457129   -0.76696754    1.75737669
 C                  0.26538561    2.35834835    3.11017330
 H                 -1.10175891    2.06835126    1.45606218
 C                  1.40645333    1.89368378    3.76407568
 H                  2.98007743    0.40590335    3.79457336
 H                 -0.26614401    3.24204414    3.49231493
 H                  1.77479049    2.41037265    4.66221636
 C                  0.46664438   -1.99144406   -0.00166270
 C                 -0.42462316   -3.04457390    0.20577681
 C                  1.82045678   -2.25442635   -0.21042196
 C                  0.03801657   -4.36031923    0.20511266
 H                 -1.49175472   -2.83686762    0.37109506
 C                  2.28323669   -3.57057294   -0.21209723
 H                  2.52302320   -1.42452532   -0.37410983
 C                  1.39231960   -4.62347376   -0.00424241
 H                 -0.66432690   -5.19042379    0.36923633
 H                  3.35064481   -3.77764365   -0.37713011
 H                  1.75685241   -5.66097647   -0.00478120

 1 2 1.0 13 1.0 24 1.0
 2 3 1.5 4 1.5
 3 5 1.5 6 1.0
 4 7 1.5 8 1.0
 5 9 1.5 10 1.0
 6
 7 9 1.5 11 1.0
 8
 9 12 1.0
 10
 11
 12
 13 14 1.5 15 1.5
 14 16 1.5 17 1.0
 15 18 1.5 19 1.0
 16 20 1.5 21 1.0
 17
 18 20 1.5 22 1.0
 19
 20 23 1.0
 21
 22
 23
 24 25 1.5 26 1.5
 25 27 1.5 28 1.0
 26 29 1.5 30 1.0
 27 31 1.5 32 1.0
 28
 29 31 1.5 33 1.0
 30
 31 34 1.0
 32
 33
 34

