%chk=Rebek-Molecular-Tennis-Ball.chk
# hf/3-21g geom=connectivity

****

0 1
 C                  7.50490000   -0.25970000   -4.02410000
 C                  8.11430000   -0.75160000   -5.18540000
 C                  9.46570000   -1.10520000   -5.16310000
 C                 10.21110000   -0.97670000   -3.98870000
 C                  9.60080000   -0.48830000   -2.82650000
 C                  8.25100000   -0.12920000   -2.85030000
 C                 10.38440000   -0.35330000   -1.55080000
 C                 11.66340000   -1.36670000   -3.98160000
 C                  6.05170000    0.12690000   -4.02920000
 C                  7.32540000   -0.91010000   -6.45520000
 N                 11.51010000    0.54070000   -1.57560000
 N                 12.59750000   -0.32630000   -3.65840000
 C                 12.75560000    0.20600000   -2.29010000
 C                 13.43130000    1.75440000   -2.58140000
 N                 12.37630000    2.64030000   -2.08530000
 C                 11.28740000    1.95110000   -1.56550000
 O                 10.27120000    2.49050000   -1.07430000
 N                 13.55870000    1.75680000   -4.03640000
 C                 12.96750000    0.64110000   -4.63140000
 O                 12.86380000    0.46920000   -5.86630000
 C                 13.68270000   -0.68300000   -1.47930000
 C                 14.85660000   -1.16580000   -2.07740000
 C                 15.71920000   -2.00020000   -1.36910000
 C                 15.42520000   -2.36220000   -0.05510000
 C                 14.26540000   -1.87980000    0.54760000
 C                 13.39720000   -1.04530000   -0.15740000
 C                 14.74010000    1.99200000   -1.85360000
 C                 15.95330000    2.13660000   -2.53620000
 C                 17.13090000    2.38540000   -1.82950000
 C                 17.11090000    2.49510000   -0.44080000
 C                 15.90500000    2.35090000    0.24490000
 C                 14.72670000    2.10140000   -0.45510000
 N                  5.67540000    1.17030000   -4.93980000
 N                  6.75700000    0.28480000   -7.01660000
 C                  5.60140000    0.96230000   -6.40010000
 C                  5.75860000    2.56070000   -7.00010000
 N                  5.84790000    3.33830000   -5.76550000
 C                  5.94030000    2.53190000   -4.62850000
 N                  7.02160000    2.48190000   -7.73560000
 C                  7.60240000    1.21990000   -7.68660000
 O                  8.68760000    0.91520000   -8.22910000
 O                  6.13480000    2.96250000   -3.47020000
 C                  4.27300000    0.33310000   -6.78160000
 C                  4.18490000   -0.71310000   -7.70780000
 C                  2.94680000   -1.27660000   -8.01870000
 C                  1.78470000   -0.80570000   -7.41140000
 C                  1.86400000    0.24070000   -6.49320000
 C                  3.09750000    0.80860000   -6.18070000
 C                  4.61290000    2.98240000   -7.89950000
 C                  4.52950000    2.45200000   -9.19540000
 C                  3.50100000    2.83920000  -10.05210000
 C                  2.54320000    3.75960000   -9.62810000
 C                  2.61860000    4.28780000   -8.34100000
 C                  3.64660000    3.90410000   -7.47880000
 H                  9.95280000   -1.46450000   -6.08440000
 H                  7.77790000    0.28300000   -1.94390000
 H                 10.77700000   -1.37290000   -1.26160000
 H                  9.70010000    0.01760000   -0.73060000
 H                 11.80800000   -2.19480000   -3.22660000
 H                 11.95130000   -1.75500000   -5.00370000
 H                  5.43980000   -0.78560000   -4.29270000
 H                  5.75420000    0.47590000   -2.99580000
 H                  7.99080000   -1.35360000   -7.25450000
 H                  6.47060000   -1.62310000   -6.25890000
 H                 12.44130000    3.63170000   -2.09030000
 H                 13.78910000    2.57130000   -4.55910000
 H                 15.11330000   -0.88120000   -3.11000000
 H                 16.63560000   -2.37110000   -1.85150000
 H                 16.10580000   -3.02190000    0.50240000
 H                 14.02870000   -2.15570000    1.58580000
 H                 12.49390000   -0.67820000    0.35380000
 H                 16.00800000    2.06060000   -3.63320000
 H                 18.07780000    2.49900000   -2.37770000
 H                 18.04020000    2.69530000    0.11210000
 H                 15.88030000    2.43510000    1.34120000
 H                 13.78430000    1.97930000    0.10170000
 H                  6.12250000    4.29480000   -5.74780000
 H                  7.44960000    3.25860000   -8.18380000
 H                  5.08020000   -1.10680000   -8.21320000
 H                  2.89260000   -2.09720000   -8.74910000
 H                  0.81090000   -1.25380000   -7.65670000
 H                  0.95110000    0.62380000   -6.01390000
 H                  3.13740000    1.64470000   -5.46470000
 H                  5.27030000    1.71690000   -9.54670000
 H                  3.44850000    2.41600000  -11.06590000
 H                  1.73360000    4.06670000  -10.30590000
 H                  1.86680000    5.01430000   -7.99880000
 H                  3.67470000    4.34280000   -6.46940000
 C                 12.17470000    6.90340000   -6.87320000
 C                 10.97020000    7.02950000   -7.57680000
 C                  9.83350000    7.51440000   -6.92540000
 C                  9.89120000    7.87690000   -5.57760000
 C                 11.09630000    7.75400000   -4.87440000
 C                 12.23220000    7.26560000   -5.52510000
 C                 11.18030000    8.14970000   -3.42640000
 C                  8.65640000    8.39490000   -4.89320000
 C                 13.40840000    6.38450000   -7.55900000
 C                 10.88900000    6.64990000   -9.02900000
 N                 10.33860000    7.43090000   -2.50910000
 N                  8.18670000    7.63360000   -3.77100000
 C                  8.87850000    7.63340000   -2.46650000
 C                  8.33130000    6.16590000   -1.76840000
 N                  9.57510000    5.40050000   -1.66620000
 C                 10.68250000    6.09680000   -2.13530000
 O                 11.85000000    5.64770000   -2.15400000
 N                  7.41990000    5.66640000   -2.79550000
 C                  7.46060000    6.42740000   -3.96630000
 O                  6.85630000    6.13450000   -5.02160000
 C                  8.47250000    8.84620000   -1.64750000
 C                  7.12350000    9.23140000   -1.62320000
 C                  6.72090000   10.35030000   -0.89650000
 C                  7.65610000   11.09830000   -0.18230000
 C                  8.99590000   10.71650000   -0.19500000
 C                  9.40490000    9.59780000   -0.92180000
 C                  7.67900000    6.34560000   -0.41160000
 C                  6.31200000    6.12170000   -0.21110000
 C                  5.75580000    6.26820000    1.06050000
 C                  6.55370000    6.63560000    2.14190000
 C                  7.91620000    6.86190000    1.94790000
 C                  8.47670000    6.71820000    0.68050000
 N                 13.32580000    5.05720000   -8.09830000
 N                 11.17200000    5.27830000   -9.35420000
 C                 12.54190000    4.73520000   -9.30780000
 C                 12.25720000    3.05520000   -9.11660000
 N                 12.97880000    2.76810000   -7.87930000
 C                 13.45430000    3.92230000   -7.25310000
 N                 10.80100000    3.01290000   -8.96900000
 C                 10.21030000    4.26860000   -9.04670000
 O                  8.98260000    4.48520000   -8.94270000
 O                 14.01060000    3.94110000   -6.13260000
 C                 13.34490000    5.04280000  -10.55970000
 C                 12.77740000    5.68320000  -11.66800000
 C                 13.55330000    5.96410000  -12.79320000
 C                 14.90050000    5.61080000  -12.82730000
 C                 15.47060000    4.96620000  -11.73010000
 C                 14.70020000    4.68200000  -10.60430000
 C                 12.71700000    2.22360000  -10.29790000
 C                 12.03400000    2.34350000  -11.51730000
 C                 12.40890000    1.57240000  -12.61530000
 C                 13.46850000    0.67160000  -12.51080000
 C                 14.15210000    0.54970000  -11.30300000
 C                 13.78030000    1.31890000  -10.19930000
 H                  8.87840000    7.58600000   -7.47110000
 H                 13.17330000    7.14180000   -4.96460000
 H                 10.90850000    9.24320000   -3.33770000
 H                 12.24170000    8.00930000   -3.06290000
 H                  8.86390000    9.44270000   -4.52500000
 H                  7.80570000    8.43440000   -5.63680000
 H                 13.66020000    7.07890000   -8.41420000
 H                 14.27050000    6.38410000   -6.82750000
 H                  9.84590000    6.85990000   -9.41120000
 H                 11.62210000    7.28590000   -9.60820000
 H                  9.62560000    4.47480000   -1.30890000
 H                  7.05190000    4.74170000   -2.78930000
 H                  6.36680000    8.64660000   -2.16960000
 H                  5.65970000   10.63980000   -0.88670000
 H                  7.33730000   11.98180000    0.38970000
 H                  9.73940000   11.29720000    0.37080000
 H                 10.47040000    9.32190000   -0.90220000
 H                  5.65090000    5.82700000   -1.04060000
 H                  4.68040000    6.08760000    1.20560000
 H                  6.11230000    6.74620000    3.14290000
 H                  8.55310000    7.15380000    2.79570000
 H                  9.55220000    6.91110000    0.54220000
 H                 12.89290000    1.90530000   -7.39110000
 H                 10.28320000    2.17720000   -8.82510000
 H                 11.71460000    5.97000000  -11.68030000
 H                 13.09390000    6.46680000  -13.65710000
 H                 15.50960000    5.83550000  -13.71480000
 H                 16.53170000    4.67690000  -11.75060000
 H                 15.16600000    4.16010000   -9.75360000
 H                 11.20120000    3.05710000  -11.61900000
 H                 11.86440000    1.67560000  -13.56540000
 H                 13.76180000    0.06090000  -13.37690000
 H                 14.98840000   -0.15920000  -11.21240000
 H                 14.34150000    1.19220000   -9.26070000
 C                  9.49750000    3.67000000   -5.40260000
 H                  9.56780000    2.60530000   -5.09220000
 H                  8.58600000    4.12930000   -4.95700000
 H                  9.43150000    3.73210000   -6.51250000
 H                 10.39900000    4.21700000   -5.05140000

 1 2 2.0 6 1.0 9 1.0
 2 3 1.0 10 1.0
 3 4 2.0 55 1.0
 4 5 1.0 8 1.0
 5 6 2.0 7 1.0
 6 56 1.0
 7 11 1.0 57 1.0 58 1.0
 8 12 1.0 59 1.0 60 1.0
 9 33 1.0 61 1.0 62 1.0
 10 34 1.0 63 1.0 64 1.0
 11 13 1.0 16 1.0
 12 13 1.0 19 1.0
 13 14 1.0 21 1.0
 14 15 1.0 18 1.0 27 1.0
 15 16 1.0 65 1.0
 16 17 2.0
 17 153 0.5
 18 19 1.0 66 1.0
 19 20 2.0
 20 165 0.5
 21 22 2.0 26 1.0
 22 23 1.0 67 1.0
 23 24 2.0 68 1.0
 24 25 1.0 69 1.0
 25 26 2.0 70 1.0
 26 71 1.0
 27 28 2.0 32 1.0
 28 29 1.0 72 1.0
 29 30 2.0 73 1.0
 30 31 1.0 74 1.0
 31 32 2.0 75 1.0
 32 76 1.0
 33 35 1.0 38 1.0
 34 35 1.0 40 1.0
 35 36 1.0 43 1.0
 36 37 1.0 39 1.0 49 1.0
 37 38 1.0 77 1.0
 38 42 2.0
 39 40 1.0 78 1.0
 40 41 2.0
 41 166 0.5
 42 154 0.5
 43 44 2.0 48 1.0
 44 45 1.0 79 1.0
 45 46 2.0 80 1.0
 46 47 1.0 81 1.0
 47 48 2.0 82 1.0
 48 83 1.0
 49 50 2.0 54 1.0
 50 51 1.0 84 1.0
 51 52 2.0 85 1.0
 52 53 1.0 86 1.0
 53 54 2.0 87 1.0
 54 88 1.0
 55
 56
 57
 58
 59
 60
 61
 62
 63
 64
 65 105 0.5
 66 130 0.5
 67
 68
 69
 70
 71
 72
 73
 74
 75
 76
 77 108 0.5
 78 129 0.5
 79
 80
 81
 82
 83
 84
 85
 86
 87
 88
 89 90 2.0 94 1.0 97 1.0
 90 91 1.0 98 1.0
 91 92 2.0 143 1.0
 92 93 1.0 96 1.0
 93 94 2.0 95 1.0
 94 144 1.0
 95 99 1.0 145 1.0 146 1.0
 96 100 1.0 147 1.0 148 1.0
 97 121 1.0 149 1.0 150 1.0
 98 122 1.0 151 1.0 152 1.0
 99 101 1.0 104 1.0
 100 101 1.0 107 1.0
 101 102 1.0 109 1.0
 102 103 1.0 106 1.0 115 1.0
 103 104 1.0 153 1.0
 104 105 2.0
 105
 106 107 1.0 154 1.0
 107 108 2.0
 108
 109 110 2.0 114 1.0
 110 111 1.0 155 1.0
 111 112 2.0 156 1.0
 112 113 1.0 157 1.0
 113 114 2.0 158 1.0
 114 159 1.0
 115 116 2.0 120 1.0
 116 117 1.0 160 1.0
 117 118 2.0 161 1.0
 118 119 1.0 162 1.0
 119 120 2.0 163 1.0
 120 164 1.0
 121 123 1.0 126 1.0
 122 123 1.0 128 1.0
 123 124 1.0 131 1.0
 124 125 1.0 127 1.0 137 1.0
 125 126 1.0 165 1.0
 126 130 2.0
 127 128 1.0 166 1.0
 128 129 2.0
 129
 130
 131 132 2.0 136 1.0
 132 133 1.0 167 1.0
 133 134 2.0 168 1.0
 134 135 1.0 169 1.0
 135 136 2.0 170 1.0
 136 171 1.0
 137 138 2.0 142 1.0
 138 139 1.0 172 1.0
 139 140 2.0 173 1.0
 140 141 1.0 174 1.0
 141 142 2.0 175 1.0
 142 176 1.0
 143
 144
 145
 146
 147
 148
 149
 150
 151
 152
 153
 154
 155
 156
 157
 158
 159
 160
 161
 162
 163
 164
 165
 166
 167
 168
 169
 170
 171
 172
 173
 174
 175
 176
 177 178 1.0 179 1.0 180 1.0 181 1.0
 178
 179
 180
 181

