%chk=18-Crown-6-K.chk
# hf/3-21g geom=connectivity

****

1 1
 C                 -3.27500000    0.90920000   -1.13340000
 O                 -2.68530000    0.54710000    0.08600000
 O                 -1.16400000    1.45290000   -1.99420000
 C                 -2.42940000    1.99860000   -1.73620000
 C                 -3.48610000   -0.46190000    0.63950000
 C                 -2.87200000   -0.85170000    1.95710000
 O                 -1.60310000   -1.38340000    1.68740000
 C                 -1.07990000   -1.82420000    2.91110000
 C                  0.23800000   -2.49150000    2.62290000
 O                  1.09430000   -1.51660000    2.09200000
 O                  1.56170000    1.49210000   -1.82380000
 C                  0.90960000    1.84470000   -3.01380000
 C                 -0.41670000    2.44910000   -2.63820000
 O                  2.74600000   -0.41830000   -0.27230000
 C                  3.51290000    0.56170000   -0.91840000
 C                  2.79390000    0.93120000   -2.18790000
 C                  2.31890000   -2.14920000    1.83530000
 C                  3.47040000   -0.81880000    0.85930000
 H                  3.60420000    0.08620000    1.48960000
 H                  4.38700000   -1.32570000    0.48870000
 H                  2.10010000   -3.00900000    1.16650000
 H                  2.77390000   -2.37680000    2.82310000
 H                  4.48710000    0.09040000   -1.16960000
 H                  3.54240000    1.44190000   -0.24120000
 H                  3.36270000    1.72590000   -2.71650000
 H                  2.56700000    0.00960000   -2.76540000
 H                  0.73960000    0.90180000   -3.57620000
 H                  1.53990000    2.61520000   -3.50710000
 H                 -0.25610000    3.25870000   -1.89450000
 H                 -0.97360000    2.71980000   -3.56060000
 H                  0.09810000   -3.25870000    1.83160000
 H                  0.69510000   -2.83310000    3.57620000
 H                 -1.79410000   -2.57500000    3.31170000
 H                 -0.90720000   -0.91760000    3.52970000
 H                 -3.46950000   -1.66850000    2.41570000
 H                 -2.71230000    0.05860000    2.57380000
 H                 -3.44040000   -1.32490000   -0.05880000
 H                 -4.48710000   -0.01380000    0.81690000
 H                 -2.28200000    2.80760000   -0.98920000
 H                 -2.85530000    2.29570000   -2.71840000
 H                 -4.28180000    1.31330000   -0.89360000
 H                 -3.23860000    0.01020000   -1.78510000
 K                  0.22030000    0.69320000    0.40170000

 1 2 1.0 4 1.0 41 1.0 42 1.0
 2 5 1.0 43 0.5
 3 4 1.0 13 1.0 43 0.5
 4 39 1.0 40 1.0
 5 6 1.0 37 1.0 38 1.0
 6 7 1.0 35 1.0 36 1.0
 7 8 1.0 43 0.5
 8 9 1.0 33 1.0 34 1.0
 9 10 1.0 31 1.0 32 1.0
 10 17 1.0 43 0.5
 11 12 1.0 16 1.0 43 0.5
 12 13 1.0 27 1.0 28 1.0
 13 29 1.0 30 1.0
 14 15 1.0 18 1.0 43 0.5
 15 16 1.0 23 1.0 24 1.0
 16 25 1.0 26 1.0
 17 18 1.0 21 1.0 22 1.0
 18 19 1.0 20 1.0
 19
 20
 21
 22
 23
 24
 25
 26
 27
 28
 29
 30
 31
 32
 33
 34
 35
 36
 37
 38
 39
 40
 41
 42
 43

