%chk=Cerium_acetylacetonate.chk
# hf/3-21g geom=connectivity

*****

0 1
 Ce                 0.06000000   -0.06150000    0.62340000
 O                 -0.42035663   -2.17062757    1.39729031
 C                 -1.34005896   -2.61892368    2.07416395
 C                 -2.42775594   -1.82704906    2.69840170
 C                 -2.69496392   -0.52602126    2.53543702
 O                 -1.97750728    0.27900105    1.73578130
 C                 -3.82039354    0.12170825    3.30087808
 C                 -1.37452713   -4.09304188    2.31427411
 O                 -1.40430000   -0.49870000   -1.15100000
 C                 -1.31310000   -1.28100000   -2.26240000
 C                 -0.30350000   -2.12470000   -2.50760000
 C                  0.91010000   -2.31520000   -1.70580000
 O                  1.18740000   -1.66290000   -0.70710000
 C                  1.84290000   -3.43130000   -2.10440000
 C                 -2.42130000   -1.24340000   -3.28230000
 O                  1.79913999   -0.68011610    2.07770200
 C                  2.33534081   -0.18652278    3.20822795
 C                  1.76381814    0.76967270    3.93493150
 C                  0.52010899    1.47100364    3.59999391
 O                 -0.07517771    1.34168533    2.53779673
 C                 -0.07525320    2.38616363    4.63413769
 C                  3.66271377   -0.73269865    3.64834198
 O                 -0.78860000    1.99260000   -0.21610000
 O                  1.83360000    1.30410000   -0.07700000
 H                 -0.38490000    2.76680000    0.25250000
 H                 -0.56190000    2.09180000   -1.17280000
 H                  2.48940000    1.04460000   -0.77120000
 H                 -4.33542101   -0.57972959    3.99217113
 H                 -4.56533272    0.54235107    2.59652816
 H                 -3.40582785    0.95145028    3.91572317
 H                 -0.53933218   -4.59894950    1.78677032
 H                 -2.33491057   -4.49237388    1.92190303
 H                 -1.30798584   -4.30073115    3.40171313
 H                  0.53381628    2.41051607    5.56401166
 H                 -1.07869582    1.99462388    4.91447847
 H                 -0.18064741    3.41651587    4.24405645
 H                  4.04198357   -1.46763457    2.90764694
 H                  3.57844714   -1.21586761    4.64181102
 H                  4.40173903    0.09868830    3.70784168
 H                 -3.16660000   -0.46180000   -3.03740000
 H                 -2.92510000   -2.23290000   -3.32660000
 H                 -2.00190000   -1.02640000   -4.29250000
 H                  1.48490000   -3.96010000   -3.01650000
 H                  1.87610000   -4.18650000   -1.28510000
 H                  2.86560000   -3.05010000   -2.28390000
 H                  2.26749714    1.07745532    4.84939891
 H                 -0.36590000   -2.74200000   -3.40630000
 H                 -3.07783134   -2.38523549    3.37057442

 1 9 1.0 13 1.0 23 1.0 24 1.0 20 1.0 6 1.0 16 1.0 2 1.0
 2 3 2.0
 3 4 1.0 8 1.0
 4 5 2.0 48 1.0
 5 6 1.0 7 1.0
 6
 7 28 1.0 29 1.0 30 1.0
 8 31 1.0 32 1.0 33 1.0
 9 10 1.0
 10 11 2.0 15 1.0
 11 12 1.0 47 1.0
 12 13 2.0 14 1.0
 13
 14 43 1.0 44 1.0 45 1.0
 15 40 1.0 41 1.0 42 1.0
 16 17 1.0
 17 18 2.0 22 1.0
 18 19 1.0 46 1.0
 19 20 2.0 21 1.0
 20
 21 34 1.0 35 1.0 36 1.0
 22 37 1.0 38 1.0 39 1.0
 23 25 1.0 26 1.0
 24 27 1.0
 25
 26
 27
 28
 29
 30
 31
 32
 33
 34
 35
 36
 37
 38
 39
 40
 41
 42
 43
 44
 45
 46
 47
 48

