%chk=ferrocene.chk
# hf/3-21g geom=connectivity

Title Card Required

0 1
 C                  0.66473988   -2.09537569    0.00000000
 C                 -0.19898912   -0.90655469    0.00000000
 C                 -1.59653112   -1.36064369    0.00000000
 C                 -1.59653112   -2.83010769    0.00000000
 C                 -0.19898912   -3.28419669    0.00000000
 H                  1.74876888   -1.98143969    0.00000000
 H                  0.02763488    0.15962631    0.00000000
 H                 -2.54049912   -0.81564369    0.00000000
 H                 -2.40655912   -3.55945969    0.00000000
 H                  0.24435388   -4.27996069    0.00000000
 Fe                -0.58526012   -2.09537569   -2.16000000
 C                 -0.89537438   -3.30629648   -4.32000000
 C                 -1.83274508   -2.17463429   -4.32000000
 C                  0.47056381   -2.76450683   -4.32000000
 H                 -1.27468663   -4.32816853   -4.32000000
 C                 -1.04613428   -0.93343974   -4.32000000
 H                 -2.92181714   -2.12966292   -4.32000000
 C                  0.37738932   -1.29800113   -4.32000000
 H                  1.32520728   -3.44102992   -4.32000000
 H                 -1.33990540    0.11622645   -4.32000000
 H                  1.28490030   -0.69424329   -4.32000000
 ?s                -0.58526012   -2.09537569   -4.32000000
 ?s                -0.58526012   -2.09537569    0.00000000

 1 2 1.5 5 1.5 6 1.0
 2 3 1.5 7 1.0
 3 4 1.5 8 1.0
 4 5 1.5 9 1.0
 5 10 1.0
 6
 7
 8
 9
 10
 11 22 1.0 23 1.0
 12 13 1.5 14 1.5 15 1.0
 13 16 1.5 17 1.0
 14 18 1.5 19 1.0
 15
 16 18 1.5 20 1.0
 17
 18 21 1.0
 19
 20
 21
 22
 23

