%chk=tetrachlorocobaltate-ii.chk
# opt hf/3-21g geom=connectivity

Title Card Required

-2 2
 Co                -0.58526012    0.31791907    0.00000000
 Cl                 0.13141895    1.33142945   -1.75546798
 Cl                 0.13138195   -1.70912907    0.00000000
 Cl                 0.13141895    1.33142945    1.75546798
 Cl                -2.73526012    0.31794556    0.00000000

 1 2 1.0 3 1.0 4 1.0 5 1.0
 2
 3
 4
 5

