%chk=fluorite.chk
# hf/3-21g geom=connectivity

global

0 1
 Ca                 0.00000000    0.00000000    0.00000000
 F                  1.36580000    1.36580000    1.36580000
 Ca                 0.00000000    2.73150000    2.73150000
 Ca                 2.73150000    0.00000000    2.73150000
 Ca                 2.73150000    2.73150000    0.00000000
 Ca                 0.00000000    0.00000000    5.46310000
 Ca                 2.73150000    2.73150000    5.46310000
 F                  1.36580000    1.36580000    4.09730000
 Ca                 0.00000000    5.46310000    0.00000000
 F                  1.36580000    4.09730000    1.36580000
 Ca                 2.73150000    5.46310000    2.73150000
 Ca                 0.00000000    5.46310000    5.46310000
 F                  1.36580000    4.09730000    4.09730000
 Ca                 5.46310000    0.00000000    0.00000000
 Ca                 5.46310000    2.73150000    2.73150000
 F                  4.09730000    1.36580000    1.36580000
 Ca                 5.46310000    0.00000000    5.46310000
 F                  4.09730000    1.36580000    4.09730000
 Ca                 5.46310000    5.46310000    0.00000000
 F                  4.09730000    4.09730000    1.36580000
 Ca                 5.46310000    5.46310000    5.46310000
 F                  4.09730000    4.09730000    4.09730000

 1 2 1.0 14 0.5 6 0.5 9 0.5
 2 4 1.0 3 1.0 5 1.0
 3 13 1.0 10 1.0 8 1.0
 4 8 1.0 18 1.0 16 1.0
 5 16 1.0 20 1.0 10 1.0
 6 8 1.0 17 0.5 12 0.5
 7 22 1.0 18 1.0 8 1.0 13 1.0
 8
 9 10 1.0 12 0.5 19 0.5
 10 11 1.0
 11 13 1.0 22 1.0 20 1.0
 12 13 1.0 21 0.5
 13
 14 16 1.0 17 0.5 19 0.5
 15 18 1.0 22 1.0 20 1.0 16 1.0
 16
 17 18 1.0 21 0.5
 18
 19 20 1.0 21 0.5
 20
 21 22 1.0
 22

