%chk=wurtzite.chk
# hf/3-21g geom=connectivity

global

0 1
 S                  0.00000000    0.00000000    2.34000000
 S                 -1.91200000    3.31170000    2.34000000
 S                  3.82400000    0.00000000    2.34000000
 Zn                 0.00000000    0.00000000    9.36000000
 Zn                 1.91200000    1.10390000    6.24000000
 Zn                 0.00000000    0.00000000    0.00000000
 Zn                 0.00000000    2.20780000    3.12000000
 S                  0.00000000    2.20780000    5.46000000
 S                  1.91200000    3.31170000    2.34000000
 Zn                -1.91200000    3.31170000    9.36000000
 Zn                 0.00000000    0.00000000   31.20000000
 S                  0.00000000    0.00000000   27.30000000
 S                  1.91200000    1.10390000   30.42000000
 Zn                -1.91200000    3.31170000    0.00000000
 Zn                -1.91200000    3.31170000   31.20000000
 Zn                 0.00000000    0.00000000   24.96000000
 Zn                 1.91200000    1.10390000   28.08000000
 S                 -1.91200000    3.31170000   27.30000000
 S                  0.00000000    2.20780000   24.18000000
 Zn                -1.91200000    3.31170000   24.96000000
 Zn                 3.82400000    0.00000000    9.36000000
 Zn                 3.82400000    0.00000000    0.08000000
 S                  1.91200000    1.10390000    8.58000000
 Zn                 1.91200000    3.31170000    9.36000000
 Zn                 3.82400000    0.00000000   31.20000000
 S                  3.82400000    0.00000000   27.30000000
 Zn                 1.91200000    3.31170000    0.00000000
 Zn                 1.91200000    3.31170000   31.20000000
 Zn                 3.82400000    0.00000000   24.96000000
 S                  1.91200000    3.31170000   27.30000000
 Zn                 1.91200000    3.31170000   24.96000000
 Zn                 0.00000000    0.00000000   15.60000000
 S                  0.00000000    0.00000000   11.70000000
 Zn                -1.91200000    3.31170000   15.60000000
 S                 -1.91200000    3.31170000   11.70000000
 S                  0.00000000    0.00000000   17.94000000
 S                  1.91200000    1.10390000   21.06000000
 Zn                 0.00000000    2.20780000   21.84000000
 Zn                 3.82400000    0.00000000   15.60000000
 Zn                 1.91200000    1.10390000   18.72000000
 S                 -1.91200000    3.31170000   17.94000000
 S                  3.82400000    0.00000000   11.70000000
 S                  0.00000000    2.20780000   14.82000000
 Zn                 0.00000000    2.20780000   12.48000000
 Zn                 1.91200000    3.31170000   15.60000000
 S                  1.91200000    3.31170000   11.70000000
 S                  3.82400000    0.00000000   17.94000000
 S                  1.91200000    3.31170000   17.94000000

 1 6 1.0 7 1.0 4 0.5
 2 14 1.0 7 1.0 10 0.5
 3 22 1.0 21 0.5
 4 23 1.0 33 1.0
 5 8 1.0 23 1.0
 6 14 0.5 22 0.5
 7 9 1.0 8 1.0
 8
 9 27 1.0 24 0.5
 10 35 1.0
 11 13 1.0 12 0.5 15 0.5 25 0.5
 12 16 1.0 17 1.0
 13 17 1.0 25 1.0 28 1.0
 14 27 0.5
 15 28 0.5 18 0.5
 16 19 1.0 36 0.5
 17 26 1.0 30 1.0
 18 20 1.0
 19 38 1.0 31 1.0 20 1.0
 20 41 0.5
 21 23 1.0 42 1.0
 22 27 0.5
 23 24 1.0
 24 46 1.0
 25 26 0.5 28 0.5
 26 29 1.0
 27
 28 30 0.5
 29 47 0.5
 30 31 1.0
 31 48 0.5
 32 43 1.0 36 1.0 33 0.5
 33 44 1.0
 34 43 1.0 41 1.0 35 0.5
 35 44 1.0
 36 40 1.0
 37 40 1.0 38 1.0
 38
 39 47 1.0 42 0.5
 40 47 1.0 48 1.0
 41
 42
 43 44 1.0 45 1.0
 44 46 1.0
 45 48 1.0 46 0.5
 46
 47
 48

