%chk=Zeolite.chk
# hf/3-21g geom=connectivity

****

0 1
 Si               -11.51080000    4.03550000   -3.71460000
 Si               -10.00680000    6.71610000   -4.09850000
 Si                -9.87790000    1.60350000   -2.65140000
 Si                -6.89990000    6.73930000   -4.09980000
 Si                -9.59950000    9.34300000    2.87980000
 Si                -5.28480000    4.18010000   -3.43860000
 Si                -6.78500000    1.62060000   -2.62290000
 Si                -6.56370000    3.80660000    4.94560000
 Si                -6.52330000    9.32360000    3.29140000
 Si                -5.41770000    6.51260000    3.95100000
 Si                -9.67150000    3.90960000    4.96290000
 Si                -3.86050000    6.50710000    1.25230000
 Si                -3.84800000    4.11270000   -0.72500000
 Si                -5.30270000    1.55300000    0.05050000
 Si                -5.28260000    9.13990000    0.43330000
 Si                -6.83090000    9.16390000   -2.22760000
 Si                -9.81840000    1.66340000    2.78420000
 Si               -10.72080000    6.48960000    3.52160000
 Si               -11.34690000    1.65580000    0.06430000
 Si               -13.02820000    4.05670000   -0.99550000
 Si               -12.22440000    6.47280000    0.81060000
 Si               -11.13510000    9.34470000    0.21940000
 Si                -9.92510000    9.42070000   -2.63400000
 Si                -6.71030000    1.54970000    2.80610000
 O                -10.41900000    5.23450000   -3.56260000
 O                -10.80810000    2.57850000   -3.55740000
 O                 -8.45310000    6.76930000   -4.58070000
 O                 -6.48720000    5.18650000   -3.86090000
 O                 -8.33050000    2.00030000   -2.93840000
 O                -10.19920000    7.84420000   -2.93930000
 O                 -8.07350000    9.79960000    3.19810000
 O                 -6.23410000    5.10820000    4.02780000
 O                 -5.80870000    2.63960000   -3.43220000
 O                 -6.51090000    1.73640000   -1.02220000
 O                -10.18780000    1.80740000   -1.06780000
 O                -12.67130000    4.13250000   -2.58070000
 O                 -6.43980000    7.72600000    3.58970000
 O                 -8.11640000    3.80240000    5.42800000
 O                 -9.92240000    9.49050000    1.29270000
 O                 -6.30340000    2.45040000    4.09250000
 O                 -4.23650000    6.45040000    2.83330000
 O                 -5.75700000    9.65340000    1.89880000
 O                 -4.05900000    5.03540000    0.59260000
 O                 -4.84630000    4.57200000   -1.92090000
 O                 -4.83780000    7.57750000    0.51430000
 O                 -6.72340000    7.62130000   -2.74100000
 O                 -6.49660000    9.27270000   -0.64030000
 O                -10.10690000    2.63300000    4.05730000
 O                 -9.80870000    5.29170000    4.12400000
 O                -10.77120000    2.06930000    1.52890000
 O                -12.58070000    2.62990000   -0.35510000
 O                -11.32350000    6.03060000    2.08630000
 O                -12.21920000    5.26260000   -0.26970000
 O                 -4.09310000    2.54800000   -0.37090000
 O                 -8.32980000    9.71220000   -2.53510000
 O                 -8.25380000    1.80010000    2.36750000
 O                 -9.77110000    7.79240000    3.33100000
 O                -11.58270000    7.78740000    0.10630000
 O                -10.65780000    9.84900000   -1.24920000
 O                 -5.76910000    1.95740000    1.54970000
 O                -10.62700000   10.27350000    3.72920000
 O                 -6.51980000    0.08710000   -3.09030000
 O                 -4.02670000    4.34900000   -4.45890000
 O                 -5.60080000    3.80050000    6.25570000
 O                 -2.33090000    4.22600000   -1.28400000
 O                -10.15270000    0.05250000   -3.05630000
 O                 -4.78210000    0.01460000    0.03150000
 O                 -2.31780000    6.98350000    1.03320000
 O                 -5.79500000   10.13050000    4.50110000
 O                -12.20240000    4.12610000   -5.18440000
 O                -10.94890000    7.10440000   -5.36760000
 O                 -4.74080000    6.81950000    5.39890000
 O                 -4.01330000   10.05250000   -0.02220000
 O                 -5.76150000   10.09130000   -3.03220000
 O                -10.62030000    3.98020000    6.28160000
 O                 -5.92650000    7.38320000   -5.23390000
 O                -10.10100000    0.11590000    3.20630000
 O                -11.93560000    6.84030000    4.54220000
 O                -11.85360000    0.10740000    0.08890000
 O                -14.62750000    4.26720000   -0.79740000
 O                -13.74350000    6.79280000    1.29010000
 O                 -6.46770000   -0.01360000    3.18100000
 O                -12.40230000   10.24020000    0.70550000
 O                -10.54010000   10.31060000   -3.84940000
 H                -10.75040000   10.96780000    3.10510000
 Si                 4.30990000    6.16700000    1.26120000
 H                 -4.80510000    4.10830000    5.85700000
 O                  4.45400000    4.72860000    0.52300000
 Si                 4.21640000    3.91090000   -0.85480000
 H                 -6.40370000    9.93650000    5.19300000
 H                -12.64390000    4.95170000   -5.08750000
 H                -10.75400000    6.37070000   -5.92430000
 H                 -4.50450000    7.72140000    5.26390000
 O                  4.57540000    5.96180000    2.84910000
 Si                 5.51880000    6.19840000    4.14960000
 H                -11.36730000    4.41110000    5.90180000
 O                  4.45680000    2.33470000   -0.56110000
 H                -12.36200000    7.51030000    4.03580000
 H                -14.78420000    3.61250000   -0.13880000
 H                -14.18900000    6.65140000    0.47260000
 H                -13.02770000    9.97410000    0.05380000
 H                -10.10260000    9.89400000   -4.57170000
 Si                 2.01670000   12.64590000   -1.32320000
 O                  0.49860000   12.15310000   -1.64730000
 Si                -1.05120000   12.64820000   -1.72510000
 O                  2.91180000   11.45120000   -0.67830000
 Si                 3.44570000    9.92190000   -0.81020000
 O                 -2.04450000   11.61610000   -0.95060000
 Si                -2.70070000   10.12870000   -0.98080000
 O                 -1.58010000    9.08920000   -0.42970000
 Si                -1.27360000    7.53050000   -0.09010000
 O                  2.23900000    8.94790000   -0.32730000
 Si                 1.80680000    7.40230000   -0.08470000
 O                 -1.57200000   12.76320000   -3.26410000
 Si                -2.92390000   13.04270000   -4.12910000
 O                  0.26070000    7.34740000    0.42110000
 O                  1.93630000    6.60090000   -1.49710000
 Si                 1.69730000    5.11400000   -2.10550000
 O                  3.83270000    9.58270000   -2.35420000
 Si                 4.83120000   10.01180000   -3.56670000
 O                  2.77420000   13.15590000   -2.66870000
 Si                 3.45200000   12.74320000   -4.08730000
 O                 -1.47270000    6.70460000   -1.47870000
 Si                -1.33480000    5.21030000   -2.09790000
 O                 -1.64870000    5.20250000   -3.68840000
 Si                -2.78540000    5.33210000   -4.84170000
 O                 -2.13970000    4.95360000   -6.28600000
 Si                -1.34020000    5.48060000   -7.60220000
 O                  0.26040000    5.59770000   -7.34000000
 Si                 1.72130000    4.95530000   -7.65590000
 O                 -1.90890000    6.94080000   -8.03920000
 Si                -3.23930000    7.77580000   -8.46140000
 O                 -2.82700000    9.26490000   -8.96190000
 Si                -1.73270000   10.46220000   -8.87500000
 O                  2.68950000    6.00560000   -8.43390000
 Si                 3.28900000    7.51690000   -8.47660000
 O                 -2.03630000   11.42660000   -7.60150000
 Si                -1.52480000   12.79260000   -6.88320000
 O                  2.44710000    4.56700000   -6.25760000
 Si                 3.08100000    5.09990000   -4.86410000
 O                 -4.23950000    7.87120000   -7.18610000
 Si                -4.41220000    7.87610000   -5.57120000
 O                 -3.33870000    6.85980000   -4.89430000
 O                 -3.17220000    9.76160000   -2.49740000
 Si                -4.25050000   10.25280000   -3.61610000
 O                 -4.14180000    9.36410000   -4.97290000
 O                  4.28780000    7.81350000   -7.22920000
 Si                 4.62740000    7.68790000   -5.64360000
 O                  2.00670000    8.51010000   -8.44530000
 Si                 1.35030000    9.98610000   -8.58460000
 O                  4.52290000    9.13200000   -4.90120000
 O                  4.58010000   11.58980000   -3.88080000
 O                  1.70180000   10.84440000   -7.25290000
 Si                 1.52370000   12.26520000   -6.48760000
 O                  2.27730000   12.17620000   -5.05310000
 O                  0.16670000    4.66180000   -1.82630000
 O                 -3.98100000   11.82190000   -3.94410000
 O                  3.58370000    6.63940000   -4.97320000
 O                 -0.25710000    9.80190000   -8.71940000
 O                 -0.05310000   12.56000000   -6.23670000
 O                 -2.54750000   13.22540000   -5.69850000
 O                  1.94950000    5.04680000   -3.70380000
 O                 -1.78780000   11.33880000  -10.24340000
 O                  2.80620000    6.74020000    1.01600000
 Si                 5.69710000    1.40000000   -0.09580000
 O                  1.55180000    3.61320000   -8.55720000
 O                  6.16520000    1.85680000    1.38600000
 O                  4.75280000    9.68980000    0.13200000
 O                  2.68260000    4.07290000   -1.35070000
 Si                 7.08420000    1.46370000    2.66480000
 O                 -3.99450000    6.99930000   -9.67450000
 O                  1.95670000   13.87660000   -0.26010000
 O                 -1.18090000   14.10880000   -1.01930000
 O                 -1.60750000    4.43450000   -8.82020000
 O                  6.69420000    5.07640000    4.25940000
 Si                 7.03170000    3.62740000    4.92270000
 O                  4.10170000    7.73310000   -9.86890000
 O                  5.24080000    4.37790000   -2.02660000
 O                  6.13360000    7.09840000   -5.45480000
 O                  1.93740000   10.73760000   -9.90000000
 O                  6.37250000    9.78520000   -3.08730000
 O                  4.13800000   14.05550000   -4.75850000
 O                  2.16830000   13.45400000   -7.38790000
 O                  4.31460000    4.11430000   -4.48200000
 O                 -1.44280000   13.98390000   -7.98710000
 O                 -3.61940000   14.41260000   -3.59420000
 H                 -1.70560000   10.63960000  -10.86870000
 Si               -11.55060000   -3.83220000    3.88470000
 Si                 5.62870000    3.93370000   -3.54500000
 H                  0.86710000    3.19170000   -8.06660000
 O                  6.66130000    2.41600000    3.90760000
 O                -10.49170000   -5.05820000    3.71670000
 Si               -10.10900000   -6.55040000    4.24380000
 O                  8.59690000    3.49210000    5.33240000
 H                 -3.23890000    6.71900000  -10.16220000
 H                  1.49910000   14.50570000   -0.79010000
 H                 -0.80540000   13.90120000   -0.18070000
 H                 -2.54460000    4.51080000   -8.87550000
 Si                10.17890000    3.55310000    4.97630000
 O                  6.13650000    7.69890000    4.08110000
 H                  4.21930000    8.66680000   -9.82590000
 Si                 7.10700000    8.80990000    3.40340000
 O                -10.81400000   -2.39340000    3.71630000
 H                  1.82430000   11.63010000   -9.62210000
 Si                -9.87280000   -1.44200000    2.79570000
 H                  4.80550000   13.63040000   -5.26920000
 H                  3.07860000   13.30940000   -7.19330000
 O                 -8.54950000   -6.64460000    4.70090000
 H                 -0.76960000   13.62440000   -8.53880000
 H                 -3.79300000   14.15010000   -2.70670000
 O                  5.40640000    7.16750000    0.60370000
 Si                 5.98550000    8.67840000    0.46620000
 O                  8.63500000    1.67790000    2.23560000
 Si                10.20350000    1.48260000    2.60670000
 O                 11.11510000    1.78910000    1.29550000
 Si                11.65820000    1.33090000   -0.16680000
 O                 12.85490000    2.34100000   -0.61480000
 Si                13.13530000    3.87010000   -1.09970000
 O                 12.66750000    4.90950000    0.05780000
 Si                13.06630000    5.96650000    1.22350000
 O                 12.25680000    4.19690000   -2.42770000
 Si                11.74110000    3.70720000   -3.88940000
 O                 10.57540000    4.72310000   -4.39700000
 Si                10.25730000    6.29570000   -4.67060000
 O                 12.73310000    7.48420000    0.74430000
 Si                11.57190000    8.57810000    0.42750000
 O                  8.68450000    6.50880000   -5.02030000
 Si                 7.18430000    6.44530000   -4.39850000
 O                 12.18370000    5.61760000    2.54250000
 Si                11.71980000    6.06990000    4.03180000
 O                 11.16780000    2.19140000   -3.74720000
 Si                10.18070000    1.23840000   -2.87370000
 O                 10.47880000    1.43590000   -1.28500000
 O                  6.89970000    1.51310000   -1.18280000
 Si                 7.10320000    1.34120000   -2.79030000
 O                  8.64490000    1.67630000   -3.17360000
 O                 10.47320000    8.56870000    1.62400000
 Si                10.19840000    8.65230000    3.22220000
 O                 10.80810000    8.18830000   -0.95020000
 Si                10.44930000    8.53520000   -2.49520000
 O                  8.64080000    8.27940000    3.49720000
 O                  6.69310000    9.11530000    1.86230000
 O                  8.93040000    9.11170000   -2.59680000
 Si                 7.36690000    8.73100000   -2.34260000
 O                  7.07120000    8.73160000   -0.74380000
 O                 10.59510000    2.50610000    3.80600000
 O                  6.11270000    2.38100000   -3.55430000
 O                 11.16890000    7.59800000    3.98980000
 O                 10.58850000    7.14600000   -3.32620000
 O                  7.11540000    7.25820000   -2.98940000
 O                  6.81020000    4.89060000   -4.11230000
 O                 10.53470000    5.07310000    4.52200000
 O                 11.17350000    6.83600000   -5.89850000
 O                  6.13960000    3.44740000    6.27290000
 O                  5.14210000   -0.12040000   -0.05740000
 O                 14.64870000    5.83760000    1.57120000
 O                  6.82320000   -0.09150000    3.06610000
 O                  4.58190000    6.10230000    5.47860000
 O                 11.03210000    3.19740000    6.31570000
 O                 10.45570000   -0.05780000    3.07130000
 O                 12.97900000    3.72610000   -4.94240000
 Si                -7.00360000   -6.65510000    4.19570000
 O                 -6.55380000   -5.11310000    3.95190000
 O                 14.71550000    4.06210000   -1.42480000
 O                 12.17770000   -0.21340000   -0.12020000
 O                 10.39470000   -0.32310000   -3.28040000
 O                 12.23160000   10.05730000    0.29980000
 O                  6.76620000   -0.19340000   -3.21040000
 O                 10.50630000   10.15760000    3.75120000
 O                 11.49410000    9.63400000   -3.07950000
 O                  6.98150000   10.19350000    4.25210000
 Si                -5.33280000   -4.13800000    3.50910000
 O                 -8.33130000   -1.87800000    3.05960000
 O                 12.97920000    5.97090000    5.05460000
 Si                -6.78130000   -1.54000000    2.71950000
 O                -10.35110000   -7.67140000    3.08780000
 H                 12.02380000    6.70400000   -5.51520000
 H                  5.28170000    3.54370000    5.89620000
 H                 14.58330000    5.52710000    2.45810000
 H                  4.13020000    6.92500000    5.40030000
 H                 11.90030000    3.24490000    5.95290000
 H                 13.69210000    3.82150000   -4.33440000
 Si               -10.12260000   -9.25460000    2.77790000
 O                 -5.81800000   -2.58470000    3.51130000
 H                 15.03720000    4.15340000   -0.54430000
 H                 11.46830000   10.57590000    0.48810000
 H                  9.82650000   10.61680000    3.28940000
 H                 11.50650000   10.22870000   -2.34920000
 H                  6.14430000   10.48530000    3.93500000
 O                 -6.53710000   -1.66180000    1.11390000
 Si                -5.34250000   -1.50910000    0.02100000
 H                 12.50440000    5.89520000    5.86450000
 O                -10.21160000   -1.63650000    1.21670000
 Si               -11.38680000   -1.45350000    0.10640000
 O                -12.73100000   -3.90120000    2.76920000
 Si               -13.10890000   -3.81350000    1.19000000
 O                 -4.93040000   -4.54070000    1.98400000
 Si                -3.94140000   -4.10710000    0.77100000
 O                 -4.20060000   -5.02170000   -0.54290000
 Si                -4.05200000   -6.49770000   -1.20670000
 O                 -4.45270000   -6.42840000   -2.78120000
 Si                -5.65100000   -6.46190000   -3.88140000
 O                 -6.43510000   -5.03760000   -3.94650000
 Si                -6.74240000   -3.72490000   -4.85660000
 O                 -6.69880000   -7.64900000   -3.50530000
 Si                -6.81740000   -9.24430000   -3.20570000
 O                 -8.37830000   -9.67950000   -3.09090000
 Si                -9.88610000   -9.18400000   -2.74520000
 O                 -8.30100000   -3.67680000   -5.31590000
 Si                -9.85100000   -3.74660000   -4.82530000
 O                -10.18270000   -9.32210000   -1.15250000
 Si               -11.37190000   -9.14440000   -0.05740000
 O                 -6.43280000   -2.37880000   -4.00400000
 Si                -6.79610000   -1.46940000   -2.71030000
 O                 -6.04080000   -9.59330000   -1.82340000
 Si                -5.52880000   -9.09320000   -0.36590000
 O                 -5.04440000   -7.54330000   -0.45370000
 O                 -6.87240000   -7.53970000    2.83330000
 Si                -7.03000000   -9.07830000    2.32130000
 O                 -6.72780000   -9.19450000    0.72810000
 O                -10.23990000   -2.46370000   -3.90760000
 Si                -9.90540000   -1.50300000   -2.63940000
 O                -10.00980000   -5.12890000   -3.98970000
 Si               -10.94170000   -6.30170000   -3.36880000
 O                -10.84890000   -1.88130000   -1.36820000
 O                -12.63810000   -2.39640000    0.54570000
 O                -11.50400000   -5.82600000   -1.92280000
 Si               -12.39300000   -6.24510000   -0.63090000
 O                -12.33860000   -5.03540000    0.44890000
 O                 -4.15180000   -2.53580000    0.42230000
 O                 -8.53670000   -9.58700000    2.65640000
 O                 -8.33840000   -1.68140000   -2.24810000
 O                -10.02400000   -7.62960000   -3.19520000
 O                -11.77370000   -7.57520000    0.06290000
 O                -10.88420000   -9.66240000    1.40280000
 O                 -5.84400000   -1.90100000   -1.46960000
 O                -10.95310000  -10.08680000   -3.57620000
 O                 -4.06210000   -4.34070000    4.50730000
 O                 -5.79730000   -3.74050000   -6.18030000
 O                 -2.41820000   -4.26140000    1.30210000
 O                 -2.51960000   -7.01600000   -1.01510000
 O                 -6.12660000  -10.06930000   -4.42530000
 O                -12.22190000   -3.90550000    5.36470000
 O                -11.03870000   -6.91400000    5.52940000
 O                 -5.00390000   -6.78430000   -5.33960000
 O                 -4.27740000  -10.04030000    0.06820000
 O                 -5.97160000  -10.03460000    3.10610000
 O                -10.82390000   -3.78650000   -6.12730000
 O                 -6.02860000   -7.32560000    5.31270000
 O                -12.18490000   -6.61860000   -4.36620000
 O                -14.71550000   -3.98610000    1.01380000
 O                -13.92790000   -6.52590000   -1.08390000
 O                -12.67140000  -10.00320000   -0.52240000
 O                -10.74340000  -10.12830000    4.00200000
 Si                -2.95000000  -10.15290000    1.00200000
 O                 -2.33470000  -11.65750000    0.95850000
 Si                -1.35650000  -12.71750000    1.71420000
 O                  0.20470000  -12.26530000    1.61070000
 Si                 1.70310000  -12.79840000    1.25930000
 O                  2.61780000  -11.62720000    0.59950000
 Si                 3.19460000  -10.11310000    0.72360000
 O                 -1.81270000   -9.14290000    0.43190000
 Si                -1.47130000   -7.59260000    0.08860000
 O                  2.00560000   -9.10670000    0.26300000
 Si                 1.61080000   -7.54970000    0.02840000
 O                 -1.85350000  -12.82040000    3.26200000
 Si                -3.19740000  -13.06380000    4.15070000
 O                  0.05810000   -7.45120000   -0.44960000
 O                  1.78640000   -6.75420000    1.43920000
 Si                 1.59810000   -5.26140000    2.05210000
 O                  3.61860000   -9.78620000    2.26070000
 Si                 4.62700000  -10.24410000    3.45440000
 O                  2.47030000  -13.33000000    2.59030000
 Si                 3.18430000  -12.93850000    3.99690000
 O                 -1.62380000   -6.76350000    1.48090000
 Si                -1.43540000   -5.27410000    2.09790000
 O                 -1.72170000   -5.25770000    3.69340000
 Si                -2.84080000   -5.35730000    4.86660000
 O                 -2.15930000   -4.99980000    6.29960000
 Si                -1.34950000   -5.55070000    7.59940000
 O                  0.24210000   -5.71040000    7.30750000
 Si                 1.72540000   -5.10980000    7.60030000
 O                 -1.94860000   -6.99610000    8.04510000
 Si                -3.29330000   -7.79550000    8.49060000
 O                 -2.91320000   -9.29680000    8.98030000
 Si                -1.85350000  -10.52310000    8.87420000
 O                  2.67680000   -6.18790000    8.36060000
 Si                 3.23710000   -7.71460000    8.39060000
 O                 -2.20510000  -11.47830000    7.60650000
 Si                -1.74270000  -12.85750000    6.87960000
 O                  2.43870000   -4.73940000    6.19040000
 Si                 3.03240000   -5.28750000    4.78480000
 O                 -4.31960000   -7.86000000    7.23440000
 Si                -4.52160000   -7.85830000    5.62280000
 O                 -3.43410000   -6.86950000    4.92720000
 O                 -3.38330000   -9.77560000    2.52710000
 Si                -4.45560000  -10.23740000    3.66450000
 O                 -4.30050000   -9.35230000    5.01930000
 O                  4.20730000   -8.03410000    7.12630000
 Si                 4.52190000   -7.91670000    5.53540000
 O                  1.92880000   -8.67400000    8.37890000
 Si                 1.23600000  -10.13170000    8.53320000
 O                  4.36620000   -9.35720000    4.79470000
 O                  4.33860000  -11.81470000    3.77170000
 O                  1.54290000  -11.00050000    7.19710000
 Si                 1.31230000  -12.41360000    6.43190000
 O                  2.04280000  -12.34190000    4.98490000
 O                  0.07560000   -4.76690000    1.80060000
 O                 -4.22330000  -11.81350000    3.98840000
 O                  3.49490000   -6.84050000    4.88340000
 O                 -0.36340000   -9.90400000    8.69310000
 O                 -0.27610000  -12.66410000    6.20780000
 O                 -2.79720000  -13.26130000    5.71230000
 O                  1.88120000   -5.20230000    3.64590000
 O                 -1.90940000  -11.39830000   10.24340000
 O                  2.60850000   -6.91450000   -1.08940000
 Si                 4.12250000   -6.38160000   -1.36240000
 O                  4.31770000   -4.94820000   -0.62630000
 Si                 4.12650000   -4.12620000    0.75630000
 O                  4.36480000   -6.18350000   -2.95510000
 Si                 5.27840000   -6.44510000   -4.27180000
 O                  4.40270000   -2.55650000    0.45890000
 Si                 5.65840000   -1.65470000   -0.02880000
 O                  1.60810000   -3.76490000    8.50600000
 O                  6.08690000   -2.12330000   -1.51850000
 O                  4.49050000   -9.91500000   -0.24170000
 O                  2.59790000   -4.24740000    1.27940000
 Si                 6.99300000   -1.75520000   -2.81380000
 O                 -4.00390000   -7.00190000    9.71960000
 O                  1.59090000  -14.02540000    0.19660000
 O                 -1.53910000  -14.17280000    1.00850000
 O                 -1.56600000   -4.50030000    8.82370000
 O                  6.48040000   -5.35440000   -4.40300000
 Si                 6.84460000   -3.91440000   -5.07120000
 O                  4.06640000   -7.95460000    9.76890000
 O                  5.15890000   -4.62120000    1.90970000
 O                  6.03940000   -7.36690000    5.31980000
 O                  1.82450000  -10.89400000    9.84170000
 O                  6.16500000  -10.05820000    2.94760000
 O                  3.84620000  -14.26980000    4.65400000
 O                  1.93850000  -13.62210000    7.31940000
 O                  4.28460000   -4.33480000    4.38120000
 O                 -1.67420000  -14.05160000    7.98130000
 O                 -3.94040000  -14.41260000    3.62560000
 Si                 5.58580000   -4.18810000    3.42050000
 O                  6.52350000   -2.69530000   -4.04890000
 O                  8.40500000   -3.81970000   -5.50850000
 Si                 9.99060000   -3.92370000   -5.18050000
 O                  5.85750000   -7.96090000   -4.21390000
 Si                 6.80980000   -9.09740000   -3.55390000
 O                  5.20390000   -7.41110000   -0.72430000
 Si                 5.74450000   -8.93730000   -0.59770000
 O                  8.54510000   -2.01080000   -2.41180000
 Si                10.11120000   -1.85670000   -2.81100000
 O                 11.03780000   -2.18730000   -1.51610000
 Si                11.61900000   -1.74360000   -0.06360000
 O                 12.79700000   -2.78510000    0.36250000
 Si                13.04510000   -4.32150000    0.84320000
 O                 12.52840000   -5.34820000   -0.30540000
 Si                12.87890000   -6.41280000   -1.48010000
 O                 12.18220000   -4.62500000    2.18700000
 Si                11.70540000   -4.12260000    3.65780000
 O                 10.52300000   -5.10900000    4.18520000
 Si                10.16850000   -6.67310000    4.46320000
 O                 12.51640000   -7.92280000   -0.99610000
 Si                11.33340000   -8.98630000   -0.65780000
 O                  8.59700000   -6.84520000    4.84110000
 Si                 7.08840000   -6.74130000    4.24520000
 O                 11.98170000   -6.03960000   -2.78220000
 Si                11.48080000   -6.48010000   -4.26340000
 O                 11.16920000   -2.59240000    3.52550000
 Si                10.19310000   -1.61290000    2.66960000
 O                 10.45780000   -1.81820000    1.07590000
 O                  6.87650000   -1.79910000    1.03680000
 Si                 7.11280000   -1.63410000    2.64020000
 O                  8.65170000   -2.00900000    2.99600000
 O                 10.21320000   -8.94780000   -1.83350000
 Si                 9.90700000   -9.02200000   -3.42680000
 O                 10.60530000   -8.57740000    0.73340000
 Si                10.26270000   -8.91540000    2.28430000
 O                  8.35520000   -8.60770000   -3.67330000
 O                  6.41460000   -9.39310000   -2.00640000
 O                  8.73100000   -9.45170000    2.41190000
 Si                 7.17390000   -9.03010000    2.18620000
 O                  6.84980000   -9.02090000    0.59290000
 O                 10.45500000   -2.89010000   -4.01670000
 O                  6.11010000   -2.64870000    3.42110000
 O                 10.89130000   -7.99350000   -4.21070000
 O                 10.45240000   -7.53010000    3.11240000
 O                  6.97310000   -7.55180000    2.83790000
 O                  6.75110000   -5.17720000    3.96590000
 O                 10.31390000   -5.45250000   -4.73390000
 O                 11.09220000   -7.23960000    5.67380000
 O                  5.93360000   -3.70930000   -6.40490000
 O                 14.45750000   -6.32270000   -1.85680000
 O                  4.32090000   -6.32270000   -5.58380000
 O                 10.82970000   -3.58910000   -6.53430000
 O                 12.96050000   -4.17450000    4.68910000
 O                 14.62530000   -4.55570000    1.14010000
 O                 11.95780000  -10.48210000   -0.54220000
 O                 10.16510000  -10.53450000   -3.96220000
 O                 11.28750000  -10.04130000    2.85150000
 O                  6.63410000  -10.47660000   -4.40070000
 O                 12.72450000   -6.41450000   -5.30720000
 H                -11.07750000  -10.78080000   -2.95210000
 H                 -5.00250000   -4.06180000   -5.79070000
 H                 -6.72080000   -9.83130000   -5.11610000
 H                -12.72220000   -4.69600000    5.25930000
 H                -10.81360000   -6.18680000    6.08340000
 H                 -4.77620000   -7.68800000   -5.20200000
 H                -11.57670000   -4.19590000   -5.73580000
 H                -12.62570000   -7.26960000   -3.84750000
 H                -14.93620000   -3.10260000    0.77360000
 H                -14.35850000   -6.35410000   -0.26420000
 H                -13.28510000   -9.69970000    0.12410000
 H                -10.29130000   -9.71680000    4.71860000
 H                 -1.70550000  -10.71700000   10.86060000
 H                  0.94330000   -3.31380000    8.01450000
 H                 -3.23190000   -6.74980000   10.19700000
 H                  1.13540000  -14.64620000    0.73800000
 H                 -1.17080000  -13.97380000    0.16460000
 H                 -2.50390000   -4.54950000    8.89450000
 H                  4.18790000   -8.88660000    9.70560000
 H                  1.84910000  -11.77270000    9.50400000
 H                  4.57000000  -13.87050000    5.10540000
 H                  2.84670000  -13.51600000    7.09270000
 H                 -0.98480000  -13.70870000    8.52370000
 H                 -4.11720000  -14.14440000    2.74040000
 H                 11.93640000   -7.15680000    5.26420000
 H                  5.08010000   -3.78470000   -6.01350000
 H                 14.38790000   -6.33860000   -2.79610000
 H                  3.91230000   -7.17060000   -5.54890000
 H                 11.70240000   -3.69700000   -6.19630000
 H                 13.65210000   -4.35640000    4.07580000
 H                 14.92880000   -4.65310000    0.25380000
 H                 11.19320000  -10.97970000   -0.77600000
 H                  9.45540000  -10.96910000   -3.52160000
 H                 11.28310000  -10.62890000    2.11520000
 H                  5.80240000  -10.75530000   -4.05850000
 H                 12.23790000   -6.33930000   -6.11010000

 1 25 1.0 26 1.0 36 1.0 70 1.0
 2 25 1.0 27 1.0 30 1.0 71 1.0
 3 26 1.0 29 1.0 35 1.0 66 1.0
 4 27 1.0 28 1.0 46 1.0 76 1.0
 5 31 1.0 39 1.0 57 1.0 61 1.0
 6 28 1.0 33 1.0 44 1.0 63 1.0
 7 29 1.0 33 1.0 34 1.0 62 1.0
 8 32 1.0 38 1.0 40 1.0 64 1.0
 9 31 1.0 37 1.0 42 1.0 69 1.0
 10 32 1.0 37 1.0 41 1.0 72 1.0
 11 38 1.0 48 1.0 49 1.0 75 1.0
 12 41 1.0 43 1.0 45 1.0 68 1.0
 13 43 1.0 44 1.0 54 1.0 65 1.0
 14 34 1.0 54 1.0 60 1.0 67 1.0
 15 42 1.0 45 1.0 47 1.0 73 1.0
 16 46 1.0 47 1.0 55 1.0 74 1.0
 17 48 1.0 50 1.0 56 1.0 77 1.0
 18 49 1.0 52 1.0 57 1.0 78 1.0
 19 35 1.0 50 1.0 51 1.0 79 1.0
 20 36 1.0 51 1.0 53 1.0 80 1.0
 21 52 1.0 53 1.0 58 1.0 81 1.0
 22 39 1.0 58 1.0 59 1.0 83 1.0
 23 30 1.0 55 1.0 59 1.0 84 1.0
 24 40 1.0 56 1.0 60 1.0 82 1.0
 25
 26
 27
 28
 29
 30
 31
 32
 33
 34
 35
 36
 37
 38
 39
 40
 41
 42
 43
 44
 45
 46
 47
 48
 49
 50
 51
 52
 53
 54
 55
 56
 57
 58
 59
 60
 61 85 1.0
 62 314 1.0
 63 126 1.0
 64 87 1.0
 65 124 1.0
 66 322 1.0
 67 291 1.0
 68 111 1.0
 69 90 1.0
 70 91 1.0
 71 92 1.0
 72 93 1.0
 73 109 1.0
 74 145 1.0
 75 96 1.0
 76 142 1.0
 77 205 1.0
 78 98 1.0
 79 294 1.0
 80 99 1.0
 81 100 1.0
 82 275 1.0
 83 101 1.0
 84 102 1.0
 85
 86 88 1.0 94 1.0 164 1.0 211 1.0
 87
 88 89 1.0
 89 97 1.0 169 1.0 178 1.0
 90
 91
 92
 93
 94 95 1.0
 95 175 1.0 200 1.0 258 1.0
 96
 97 165 1.0
 98
 99
 100
 101
 102
 103 104 1.0 106 1.0 121 1.0 172 1.0
 104 105 1.0
 105 108 1.0 114 1.0 173 1.0
 106 107 1.0
 107 112 1.0 119 1.0 168 1.0
 108 109 1.0
 109 110 1.0 144 1.0
 110 111 1.0
 111 116 1.0 123 1.0
 112 113 1.0
 113 116 1.0 117 1.0 164 1.0
 114 115 1.0
 115 157 1.0 161 1.0 186 1.0
 116
 117 118 1.0
 118 156 1.0 162 1.0 169 1.0
 119 120 1.0
 120 151 1.0 152 1.0 181 1.0
 121 122 1.0
 122 152 1.0 155 1.0 182 1.0
 123 124 1.0
 124 125 1.0 156 1.0
 125 126 1.0
 126 127 1.0 143 1.0
 127 128 1.0
 128 129 1.0 131 1.0 174 1.0
 129 130 1.0
 130 135 1.0 139 1.0 166 1.0
 131 132 1.0
 132 133 1.0 141 1.0 171 1.0
 133 134 1.0
 134 137 1.0 159 1.0 163 1.0
 135 136 1.0
 136 147 1.0 149 1.0 177 1.0
 137 138 1.0
 138 160 1.0 161 1.0 185 1.0
 139 140 1.0
 140 158 1.0 162 1.0 184 1.0
 141 142 1.0
 142 143 1.0 146 1.0
 143
 144 145 1.0
 145 146 1.0 157 1.0
 146
 147 148 1.0
 148 151 1.0 158 1.0 179 1.0
 149 150 1.0
 150 153 1.0 159 1.0 180 1.0
 151
 152
 153 154 1.0
 154 155 1.0 160 1.0 183 1.0
 155
 156
 157
 158
 159
 160
 161
 162
 163 187 1.0
 164
 165 167 1.0 234 1.0 255 1.0
 166 190 1.0
 167 170 1.0
 168 212 1.0
 169
 170 191 1.0 213 1.0 257 1.0
 171 195 1.0
 172 196 1.0
 173 197 1.0
 174 198 1.0
 175 176 1.0
 176 191 1.0 194 1.0 254 1.0
 177 201 1.0
 178 189 1.0
 179 228 1.0
 180 204 1.0
 181 244 1.0
 182 206 1.0
 183 207 1.0
 184 189 1.0
 185 209 1.0
 186 210 1.0
 187
 188 192 1.0 203 1.0 295 1.0 343 1.0
 189 247 1.0 251 1.0
 190
 191
 192 193 1.0
 193 208 1.0 276 1.0 344 1.0
 194 199 1.0
 195
 196
 197
 198
 199 246 1.0 252 1.0 259 1.0
 200 202 1.0
 201
 202 241 1.0 242 1.0 271 1.0
 203 205 1.0
 204
 205 273 1.0 293 1.0
 206
 207
 208 262 1.0
 209
 210
 211 212 1.0
 212 242 1.0 245 1.0
 213 214 1.0
 214 215 1.0 246 1.0 260 1.0
 215 216 1.0
 216 217 1.0 233 1.0 265 1.0
 217 218 1.0
 218 219 1.0 221 1.0 264 1.0
 219 220 1.0
 220 225 1.0 229 1.0 256 1.0
 221 222 1.0
 222 223 1.0 231 1.0 261 1.0
 223 224 1.0
 224 227 1.0 249 1.0 253 1.0
 225 226 1.0
 226 237 1.0 239 1.0 267 1.0
 227 228 1.0
 228 250 1.0 251 1.0
 229 230 1.0
 230 248 1.0 252 1.0 274 1.0
 231 232 1.0
 232 233 1.0 236 1.0 266 1.0
 233
 234 235 1.0
 235 236 1.0 247 1.0 268 1.0
 236
 237 238 1.0
 238 241 1.0 248 1.0 269 1.0
 239 240 1.0
 240 243 1.0 249 1.0 270 1.0
 241
 242
 243 244 1.0
 244 245 1.0 250 1.0
 245
 246
 247
 248
 249
 250
 251
 252
 253 277 1.0
 254 278 1.0
 255 423 1.0
 256 279 1.0
 257 475 1.0
 258 280 1.0
 259 281 1.0
 260 472 1.0
 261 282 1.0
 262 263 1.0 318 1.0 349 1.0
 263 272 1.0
 264 285 1.0
 265 456 1.0
 266 454 1.0
 267 286 1.0
 268 428 1.0
 269 287 1.0
 270 288 1.0
 271 289 1.0
 272 284 1.0 297 1.0 338 1.0
 273 275 1.0
 274 292 1.0
 275 284 1.0 290 1.0
 276 283 1.0
 277
 278
 279
 280
 281
 282
 283 331 1.0 335 1.0 354 1.0
 284
 285
 286
 287
 288
 289
 290 291 1.0
 291 330 1.0 336 1.0
 292
 293 294 1.0
 294 325 1.0 326 1.0
 295 296 1.0
 296 326 1.0 329 1.0 351 1.0
 297 298 1.0
 298 299 1.0 330 1.0 340 1.0
 299 300 1.0
 300 301 1.0 317 1.0 341 1.0
 301 302 1.0
 302 303 1.0 305 1.0 345 1.0
 303 304 1.0
 304 309 1.0 313 1.0 339 1.0
 305 306 1.0
 306 307 1.0 315 1.0 342 1.0
 307 308 1.0
 308 311 1.0 333 1.0 337 1.0
 309 310 1.0
 310 321 1.0 323 1.0 348 1.0
 311 312 1.0
 312 334 1.0 335 1.0 353 1.0
 313 314 1.0
 314 332 1.0 336 1.0
 315 316 1.0
 316 317 1.0 320 1.0 346 1.0
 317
 318 319 1.0
 319 320 1.0 331 1.0 347 1.0
 320
 321 322 1.0
 322 325 1.0 332 1.0
 323 324 1.0
 324 327 1.0 333 1.0 350 1.0
 325
 326
 327 328 1.0
 328 329 1.0 334 1.0 352 1.0
 329
 330
 331
 332
 333
 334
 335
 336
 337 505 1.0
 338 378 1.0
 339 506 1.0
 340 376 1.0
 341 363 1.0
 342 507 1.0
 343 508 1.0
 344 509 1.0
 345 510 1.0
 346 355 1.0
 347 397 1.0
 348 511 1.0
 349 394 1.0
 350 512 1.0
 351 513 1.0
 352 514 1.0
 353 515 1.0
 354 516 1.0
 355 356 1.0 362 1.0 396 1.0
 356 357 1.0
 357 358 1.0 366 1.0 431 1.0
 358 359 1.0
 359 360 1.0 373 1.0 430 1.0
 360 361 1.0
 361 364 1.0 371 1.0 426 1.0
 362 363 1.0
 363 368 1.0 375 1.0
 364 365 1.0
 365 368 1.0 369 1.0 416 1.0
 366 367 1.0
 367 409 1.0 413 1.0 444 1.0
 368
 369 370 1.0
 370 408 1.0 414 1.0 427 1.0
 371 372 1.0
 372 403 1.0 404 1.0 439 1.0
 373 374 1.0
 374 404 1.0 407 1.0 440 1.0
 375 376 1.0
 376 377 1.0 408 1.0
 377 378 1.0
 378 379 1.0 395 1.0
 379 380 1.0
 380 381 1.0 383 1.0 432 1.0
 381 382 1.0
 382 387 1.0 391 1.0 424 1.0
 383 384 1.0
 384 385 1.0 393 1.0 429 1.0
 385 386 1.0
 386 389 1.0 411 1.0 415 1.0
 387 388 1.0
 388 399 1.0 401 1.0 435 1.0
 389 390 1.0
 390 412 1.0 413 1.0 443 1.0
 391 392 1.0
 392 410 1.0 414 1.0 442 1.0
 393 394 1.0
 394 395 1.0 398 1.0
 395
 396 397 1.0
 397 398 1.0 409 1.0
 398
 399 400 1.0
 400 403 1.0 410 1.0 437 1.0
 401 402 1.0
 402 405 1.0 411 1.0 438 1.0
 403
 404
 405 406 1.0
 406 407 1.0 412 1.0 441 1.0
 407
 408
 409
 410
 411
 412
 413
 414
 415 517 1.0
 416 417 1.0
 417 418 1.0 420 1.0 451 1.0
 418 419 1.0
 419 422 1.0 427 1.0 436 1.0
 420 421 1.0
 421 433 1.0 449 1.0 496 1.0
 422 423 1.0
 423 425 1.0 474 1.0
 424 518 1.0
 425 428 1.0
 426 452 1.0
 427
 428 446 1.0 453 1.0
 429 519 1.0
 430 520 1.0
 431 521 1.0
 432 522 1.0
 433 434 1.0
 434 446 1.0 447 1.0 494 1.0
 435 523 1.0
 436 445 1.0
 437 468 1.0
 438 524 1.0
 439 484 1.0
 440 525 1.0
 441 526 1.0
 442 445 1.0
 443 527 1.0
 444 528 1.0
 445 487 1.0 491 1.0
 446
 447 448 1.0
 448 486 1.0 492 1.0 497 1.0
 449 450 1.0
 450 481 1.0 482 1.0 503 1.0
 451 452 1.0
 452 482 1.0 485 1.0
 453 454 1.0
 454 455 1.0 486 1.0
 455 456 1.0
 456 457 1.0 473 1.0
 457 458 1.0
 458 459 1.0 461 1.0 499 1.0
 459 460 1.0
 460 465 1.0 469 1.0 495 1.0
 461 462 1.0
 462 463 1.0 471 1.0 498 1.0
 463 464 1.0
 464 467 1.0 489 1.0 493 1.0
 465 466 1.0
 466 477 1.0 479 1.0 500 1.0
 467 468 1.0
 468 490 1.0 491 1.0
 469 470 1.0
 470 488 1.0 492 1.0 504 1.0
 471 472 1.0
 472 473 1.0 476 1.0
 473
 474 475 1.0
 475 476 1.0 487 1.0
 476
 477 478 1.0
 478 481 1.0 488 1.0 501 1.0
 479 480 1.0
 480 483 1.0 489 1.0 502 1.0
 481
 482
 483 484 1.0
 484 485 1.0 490 1.0
 485
 486
 487
 488
 489
 490
 491
 492
 493 529 1.0
 494 530 1.0
 495 531 1.0
 496 532 1.0
 497 533 1.0
 498 534 1.0
 499 535 1.0
 500 536 1.0
 501 537 1.0
 502 538 1.0
 503 539 1.0
 504 540 1.0
 505
 506
 507
 508
 509
 510
 511
 512
 513
 514
 515
 516
 517
 518
 519
 520
 521
 522
 523
 524
 525
 526
 527
 528
 529
 530
 531
 532
 533
 534
 535
 536
 537
 538
 539
 540

